34

S 	 -133.231 	 66.8843 	 -61.3191 	 
C 	 -132.723 	 65.2035 	 -61.1335 	 
C 	 -133.679 	 64.4818 	 -60.4704 	 
C 	 -134.797 	 65.3667 	 -60.0912 	 
C 	 -134.662 	 66.7132 	 -60.3399 	 
H 	 -135.612 	 65.0237 	 -59.4952 	 
C 	 -133.702 	 62.9952 	 -60.0834 	 
H 	 -133.763 	 62.2561 	 -60.8519 	 
H 	 -134.762 	 62.9093 	 -59.7636 	 
C 	 -132.744 	 62.5232 	 -58.9982 	 
H 	 -132.846 	 63.1836 	 -58.1617 	 
H 	 -133.028 	 61.5713 	 -58.5666 	 
C 	 -131.277 	 62.4461 	 -59.517 	 
H 	 -131.158 	 61.9875 	 -60.4535 	 
H 	 -130.862 	 63.4574 	 -59.7254 	 
H 	 -130.594 	 61.8798 	 -58.864 	 
S 	 -134.701 	 69.4897 	 -60.0381 	 
C 	 -136.197 	 70.3553 	 -59.4794 	 
C 	 -137.24 	 69.3644 	 -59.3963 	 
C 	 -136.819 	 68.0262 	 -59.6392 	 
C 	 -135.466 	 67.8886 	 -59.9904 	 
H 	 -138.216 	 69.7646 	 -59.1605 	 
C 	 -137.837 	 66.8901 	 -59.5577 	 
H 	 -138.86 	 67.1658 	 -59.1626 	 
H 	 -137.461 	 66.1181 	 -58.8844 	 
C 	 -138.088 	 66.1518 	 -60.9054 	 
H 	 -137.19 	 65.8874 	 -61.4355 	 
H 	 -138.63 	 66.824 	 -61.5289 	 
C 	 -139.008 	 64.9132 	 -60.6476 	 
H 	 -139.925 	 65.3426 	 -60.2733 	 
H 	 -138.708 	 64.283 	 -59.8067 	 
H 	 -139.245 	 64.3767 	 -61.5254 	 
H 	 -131.885 	 64.793 	 -61.6455 	 
H 	 -136.309 	 71.4141 	 -59.2525 	 
