34

S 	 -102.364 	 -4.23836 	 -121.864 	 
C 	 -103.988 	 -3.91636 	 -122.341 	 
C 	 -104.671 	 -3.24648 	 -121.323 	 
C 	 -103.847 	 -3.18015 	 -120.14 	 
C 	 -102.604 	 -3.7562 	 -120.199 	 
H 	 -104.136 	 -2.73983 	 -119.206 	 
C 	 -106.133 	 -2.84361 	 -121.4 	 
H 	 -106.343 	 -2.36754 	 -120.425 	 
H 	 -106.773 	 -3.72054 	 -121.464 	 
C 	 -106.458 	 -1.92624 	 -122.551 	 
H 	 -105.716 	 -1.12274 	 -122.491 	 
H 	 -106.308 	 -2.33299 	 -123.53 	 
C 	 -107.83 	 -1.30783 	 -122.467 	 
H 	 -107.945 	 -0.643893 	 -123.28 	 
H 	 -108.593 	 -2.10884 	 -122.43 	 
H 	 -107.959 	 -0.700576 	 -121.633 	 
S 	 -100.041 	 -3.06186 	 -119.751 	 
C 	 -99.4326 	 -3.00581 	 -118.118 	 
C 	 -100.403 	 -3.3876 	 -117.201 	 
C 	 -101.566 	 -3.84087 	 -117.826 	 
C 	 -101.57 	 -3.67555 	 -119.198 	 
H 	 -100.228 	 -3.42847 	 -116.157 	 
C 	 -102.745 	 -4.27217 	 -116.994 	 
H 	 -103.382 	 -4.89612 	 -117.72 	 
H 	 -103.475 	 -3.57361 	 -116.758 	 
C 	 -102.406 	 -5.06012 	 -115.707 	 
H 	 -102.237 	 -4.47896 	 -114.783 	 
H 	 -101.515 	 -5.65556 	 -115.915 	 
C 	 -103.507 	 -6.06851 	 -115.376 	 
H 	 -103.376 	 -6.37227 	 -114.341 	 
H 	 -103.43 	 -7.02134 	 -115.98 	 
H 	 -104.52 	 -5.67953 	 -115.277 	 
H 	 -104.371 	 -4.07196 	 -123.331 	 
H 	 -98.4136 	 -2.79053 	 -117.875 	 
