34

S 	 34.9401 	 -4.50883 	 -115.459 	 
C 	 36.3393 	 -5.14628 	 -116.193 	 
C 	 37.112 	 -5.88718 	 -115.286 	 
C 	 36.6916 	 -5.58521 	 -113.922 	 
C 	 35.5742 	 -4.76389 	 -113.862 	 
H 	 37.239 	 -5.77611 	 -112.989 	 
C 	 38.3586 	 -6.58447 	 -115.677 	 
H 	 38.6704 	 -5.9767 	 -116.482 	 
H 	 38.1961 	 -7.61004 	 -116.103 	 
C 	 39.4546 	 -6.56243 	 -114.586 	 
H 	 39.5982 	 -5.621 	 -114.128 	 
H 	 39.1088 	 -7.20068 	 -113.766 	 
C 	 40.8071 	 -7.09454 	 -115.177 	 
H 	 40.8214 	 -8.09422 	 -115.547 	 
H 	 41.1445 	 -6.53877 	 -116.047 	 
H 	 41.654 	 -7.03838 	 -114.536 	 
S 	 34.4799 	 -2.52779 	 -112.756 	 
C 	 34.0309 	 -2.56583 	 -111.045 	 
C 	 34.0578 	 -3.81714 	 -110.479 	 
C 	 34.4675 	 -4.79224 	 -111.434 	 
C 	 34.8673 	 -4.24776 	 -112.685 	 
H 	 33.926 	 -3.93516 	 -109.378 	 
C 	 34.7576 	 -6.24126 	 -110.96 	 
H 	 34.8516 	 -6.3247 	 -109.909 	 
H 	 35.7682 	 -6.49295 	 -111.202 	 
C 	 33.627 	 -7.24568 	 -111.3 	 
H 	 33.86 	 -8.21586 	 -110.813 	 
H 	 33.5828 	 -7.4285 	 -112.359 	 
C 	 32.3275 	 -6.80595 	 -110.639 	 
H 	 32.5188 	 -6.73335 	 -109.544 	 
H 	 31.5346 	 -7.55599 	 -111.003 	 
H 	 32.0996 	 -5.79503 	 -110.919 	 
H 	 36.5156 	 -5.09877 	 -117.302 	 
H 	 33.8596 	 -1.73274 	 -110.349 	 
