34

S 	 -128.001 	 63.5776 	 -41.5197 	 
C 	 -126.43 	 63.6621 	 -42.2817 	 
C 	 -125.464 	 63.9726 	 -41.347 	 
C 	 -125.99 	 64.0478 	 -40.0275 	 
C 	 -127.375 	 63.8453 	 -39.9263 	 
H 	 -125.349 	 64.2724 	 -39.1839 	 
C 	 -123.967 	 64.1051 	 -41.6109 	 
H 	 -123.671 	 65.1249 	 -41.3396 	 
H 	 -123.842 	 63.8666 	 -42.7135 	 
C 	 -123.236 	 63.0581 	 -40.8973 	 
H 	 -122.174 	 63.1655 	 -40.9261 	 
H 	 -123.494 	 63.0432 	 -39.8484 	 
C 	 -123.472 	 61.5978 	 -41.5049 	 
H 	 -122.941 	 61.4606 	 -42.4909 	 
H 	 -123.036 	 60.7913 	 -40.8974 	 
H 	 -124.541 	 61.3716 	 -41.7173 	 
S 	 -129.811 	 62.9798 	 -39.0428 	 
C 	 -130.401 	 63.5332 	 -37.4778 	 
C 	 -129.528 	 64.3777 	 -36.805 	 
C 	 -128.292 	 64.5333 	 -37.5637 	 
C 	 -128.294 	 63.9268 	 -38.8218 	 
H 	 -129.7 	 64.6626 	 -35.7928 	 
C 	 -127.265 	 65.5045 	 -36.9863 	 
H 	 -127.691 	 66.4614 	 -36.8101 	 
H 	 -126.572 	 65.6315 	 -37.8225 	 
C 	 -126.458 	 65.1332 	 -35.726 	 
H 	 -125.737 	 64.3837 	 -35.919 	 
H 	 -127.142 	 64.7277 	 -34.9146 	 
C 	 -125.659 	 66.317 	 -35.1111 	 
H 	 -125.252 	 65.875 	 -34.1969 	 
H 	 -126.255 	 67.284 	 -34.8903 	 
H 	 -124.812 	 66.5281 	 -35.7323 	 
H 	 -126.234 	 63.4879 	 -43.2693 	 
H 	 -131.376 	 63.3043 	 -37.1021 	 
