34

S 	 -23.9776 	 -36.965 	 -94.1662 	 
C 	 -22.3296 	 -37.4495 	 -93.7289 	 
C 	 -21.4914 	 -36.3357 	 -93.7007 	 
C 	 -22.1637 	 -35.108 	 -94.0907 	 
C 	 -23.5087 	 -35.2975 	 -94.3225 	 
H 	 -21.7356 	 -34.0758 	 -93.9516 	 
C 	 -20.0229 	 -36.3795 	 -93.2806 	 
H 	 -19.7748 	 -37.3266 	 -92.6551 	 
H 	 -19.9829 	 -35.4664 	 -92.6414 	 
C 	 -19.0356 	 -36.2295 	 -94.4996 	 
H 	 -19.1656 	 -37.017 	 -95.2974 	 
H 	 -19.2426 	 -35.3047 	 -94.9957 	 
C 	 -17.5474 	 -36.4674 	 -94.1303 	 
H 	 -17.1297 	 -35.5725 	 -93.6446 	 
H 	 -17.469 	 -37.2844 	 -93.3671 	 
H 	 -17.0025 	 -36.7733 	 -94.9399 	 
S 	 -25.4934 	 -34.589 	 -96.2441 	 
C 	 -26.1354 	 -32.9344 	 -96.2253 	 
C 	 -25.5165 	 -32.1068 	 -95.3624 	 
C 	 -24.6097 	 -32.8336 	 -94.52 	 
C 	 -24.4922 	 -34.2612 	 -94.7818 	 
H 	 -25.6389 	 -31.0516 	 -95.3529 	 
C 	 -23.923 	 -32.0935 	 -93.3346 	 
H 	 -23.2814 	 -31.3596 	 -93.8991 	 
H 	 -23.2019 	 -32.7214 	 -92.9098 	 
C 	 -24.9637 	 -31.5546 	 -92.3196 	 
H 	 -25.3783 	 -32.3555 	 -91.7558 	 
H 	 -25.8283 	 -30.9721 	 -92.7916 	 
C 	 -24.2033 	 -30.5726 	 -91.409 	 
H 	 -23.9089 	 -29.5591 	 -91.8032 	 
H 	 -23.3656 	 -30.9627 	 -90.9677 	 
H 	 -24.7483 	 -30.3166 	 -90.4898 	 
H 	 -21.9648 	 -38.4907 	 -93.6385 	 
H 	 -26.9643 	 -32.7075 	 -96.8982 	 
