34

S 	 -123.753 	 67.1799 	 -40.1138 	 
C 	 -123.74 	 68.9586 	 -39.8439 	 
C 	 -122.741 	 69.5093 	 -40.6345 	 
C 	 -122.015 	 68.5218 	 -41.3944 	 
C 	 -122.554 	 67.2665 	 -41.323 	 
H 	 -121.093 	 68.6731 	 -41.9625 	 
C 	 -122.356 	 70.9737 	 -40.549 	 
H 	 -121.348 	 70.9448 	 -40.8097 	 
H 	 -122.536 	 71.2937 	 -39.5519 	 
C 	 -123.083 	 72.0113 	 -41.51 	 
H 	 -122.503 	 72.943 	 -41.4099 	 
H 	 -122.832 	 71.62 	 -42.5129 	 
C 	 -124.593 	 72.1284 	 -41.2766 	 
H 	 -124.97 	 73.1656 	 -41.3595 	 
H 	 -125.065 	 71.5188 	 -42.0632 	 
H 	 -124.925 	 71.6439 	 -40.3889 	 
S 	 -120.975 	 65.0089 	 -41.1675 	 
C 	 -120.476 	 64.1231 	 -42.6233 	 
C 	 -121.399 	 64.4757 	 -43.6272 	 
C 	 -122.186 	 65.6272 	 -43.3419 	 
C 	 -122.034 	 66.0303 	 -42.039 	 
H 	 -121.348 	 63.8472 	 -44.4992 	 
C 	 -123.156 	 66.2219 	 -44.2922 	 
H 	 -123.743 	 67.0337 	 -43.7831 	 
H 	 -124.041 	 65.5685 	 -44.4962 	 
C 	 -122.654 	 66.8546 	 -45.5929 	 
H 	 -123.47 	 67.0685 	 -46.265 	 
H 	 -122.05 	 66.0946 	 -46.1054 	 
C 	 -121.765 	 68.0796 	 -45.3269 	 
H 	 -120.882 	 67.8733 	 -44.6996 	 
H 	 -122.307 	 68.9281 	 -44.9675 	 
H 	 -121.366 	 68.2327 	 -46.2364 	 
H 	 -124.39 	 69.5989 	 -39.2453 	 
H 	 -119.813 	 63.302 	 -42.6087 	 
