34

S 	 14.435 	 -13.4083 	 -116.249 	 
C 	 13.2228 	 -12.1349 	 -116.59 	 
C 	 12.1768 	 -12.6349 	 -117.329 	 
C 	 12.3529 	 -14.0505 	 -117.595 	 
C 	 13.5855 	 -14.6163 	 -117.14 	 
H 	 11.6224 	 -14.6653 	 -118.096 	 
C 	 11.0042 	 -11.8904 	 -117.821 	 
H 	 10.9541 	 -12.2236 	 -118.906 	 
H 	 11.3205 	 -10.7977 	 -117.778 	 
C 	 9.69979 	 -12.204 	 -117.007 	 
H 	 8.9696 	 -11.4793 	 -117.311 	 
H 	 9.289 	 -13.1861 	 -117.326 	 
C 	 9.83779 	 -12.0443 	 -115.546 	 
H 	 10.1996 	 -11.0983 	 -115.355 	 
H 	 8.86396 	 -12.1491 	 -115.052 	 
H 	 10.5647 	 -12.7267 	 -115.15 	 
S 	 14.9823 	 -16.133 	 -118.909 	 
C 	 15.371 	 -17.8106 	 -118.461 	 
C 	 14.5051 	 -18.2925 	 -117.515 	 
C 	 13.7788 	 -17.2209 	 -116.854 	 
C 	 14.0796 	 -15.9695 	 -117.374 	 
H 	 14.4769 	 -19.3613 	 -117.38 	 
C 	 12.7838 	 -17.4001 	 -115.73 	 
H 	 12.8876 	 -16.5446 	 -115.013 	 
H 	 13.0244 	 -18.3097 	 -115.159 	 
C 	 11.3632 	 -17.7058 	 -116.191 	 
H 	 11.4252 	 -18.452 	 -116.947 	 
H 	 10.9296 	 -16.8321 	 -116.67 	 
C 	 10.4455 	 -18.1485 	 -115.15 	 
H 	 10.7308 	 -19.0553 	 -114.587 	 
H 	 9.42165 	 -18.2843 	 -115.509 	 
H 	 10.4372 	 -17.4547 	 -114.312 	 
H 	 13.4832 	 -11.1292 	 -116.284 	 
H 	 15.9 	 -18.549 	 -119.003 	 
