34

S 	 -10.0338 	 -30.7634 	 -110.177 	 
C 	 -9.74261 	 -29.4964 	 -108.981 	 
C 	 -9.6931 	 -29.8674 	 -107.675 	 
C 	 -10.0375 	 -31.2253 	 -107.575 	 
C 	 -10.0491 	 -31.908 	 -108.837 	 
H 	 -10.3138 	 -31.7837 	 -106.765 	 
C 	 -9.32945 	 -28.9864 	 -106.523 	 
H 	 -10.101 	 -28.8366 	 -105.742 	 
H 	 -9.15348 	 -27.996 	 -106.84 	 
C 	 -8.0007 	 -29.3009 	 -105.81 	 
H 	 -7.92406 	 -28.8048 	 -104.904 	 
H 	 -8.07311 	 -30.3159 	 -105.579 	 
C 	 -6.73469 	 -28.9241 	 -106.63 	 
H 	 -6.68306 	 -27.8232 	 -106.775 	 
H 	 -5.84363 	 -29.2581 	 -106.039 	 
H 	 -6.5846 	 -29.5637 	 -107.467 	 
S 	 -11.9661 	 -33.6115 	 -109.982 	 
C 	 -11.7159 	 -35.3363 	 -109.924 	 
C 	 -10.6613 	 -35.6103 	 -109.055 	 
C 	 -9.78646 	 -34.4676 	 -108.741 	 
C 	 -10.4623 	 -33.2726 	 -109.018 	 
H 	 -10.5153 	 -36.6517 	 -109.029 	 
C 	 -8.46098 	 -34.6153 	 -108.056 	 
H 	 -8.51365 	 -35.5103 	 -107.504 	 
H 	 -8.44245 	 -33.7845 	 -107.276 	 
C 	 -7.20162 	 -34.7584 	 -108.901 	 
H 	 -7.15384 	 -35.7041 	 -109.387 	 
H 	 -6.34217 	 -34.8253 	 -108.295 	 
C 	 -7.03824 	 -33.5363 	 -109.799 	 
H 	 -7.90189 	 -33.274 	 -110.437 	 
H 	 -6.2769 	 -33.8331 	 -110.489 	 
H 	 -6.7348 	 -32.5593 	 -109.298 	 
H 	 -9.39368 	 -28.5286 	 -109.259 	 
H 	 -12.468 	 -36.0449 	 -110.27 	 
