34

S 	 -106.838 	 30.7105 	 -20.6814 	 
C 	 -105.336 	 30.7563 	 -19.8364 	 
C 	 -104.963 	 32.0277 	 -19.4263 	 
C 	 -105.975 	 33.0298 	 -19.8226 	 
C 	 -107.084 	 32.4345 	 -20.3796 	 
H 	 -105.956 	 34.1375 	 -19.7525 	 
C 	 -103.746 	 32.4621 	 -18.7405 	 
H 	 -103.92 	 32.0594 	 -17.6913 	 
H 	 -103.876 	 33.5383 	 -18.7824 	 
C 	 -102.352 	 32.0104 	 -19.2194 	 
H 	 -102.28 	 30.9781 	 -19.1487 	 
H 	 -102.174 	 32.2819 	 -20.2079 	 
C 	 -101.171 	 32.6176 	 -18.4471 	 
H 	 -101.002 	 33.6974 	 -18.7324 	 
H 	 -101.278 	 32.6354 	 -17.3279 	 
H 	 -100.304 	 31.9446 	 -18.6065 	 
S 	 -108.64 	 34.6693 	 -20.2662 	 
C 	 -109.933 	 34.8847 	 -21.3949 	 
C 	 -110.006 	 33.7701 	 -22.2167 	 
C 	 -109.038 	 32.7662 	 -22.0205 	 
C 	 -108.2 	 33.1145 	 -20.9581 	 
H 	 -110.842 	 33.8565 	 -22.8467 	 
C 	 -108.908 	 31.6421 	 -22.8927 	 
H 	 -107.888 	 31.2937 	 -22.8957 	 
H 	 -109.028 	 32.0767 	 -23.9686 	 
C 	 -109.846 	 30.4821 	 -22.7244 	 
H 	 -109.854 	 30.2253 	 -21.6858 	 
H 	 -109.529 	 29.6571 	 -23.3358 	 
C 	 -111.346 	 30.7407 	 -22.8549 	 
H 	 -111.848 	 29.737 	 -22.8652 	 
H 	 -111.615 	 31.2173 	 -23.8196 	 
H 	 -111.692 	 31.3272 	 -21.9729 	 
H 	 -104.74 	 29.9195 	 -19.549 	 
H 	 -110.638 	 35.7198 	 -21.5232 	 
