34

S 	 -57.9912 	 0.537127 	 -17.6854 	 
C 	 -57.8511 	 -0.462655 	 -16.3713 	 
C 	 -58.1061 	 -1.7684 	 -16.6366 	 
C 	 -58.4021 	 -1.98443 	 -17.9902 	 
C 	 -58.4642 	 -0.808414 	 -18.78 	 
H 	 -58.565 	 -2.98636 	 -18.4611 	 
C 	 -57.8666 	 -2.96028 	 -15.6903 	 
H 	 -58.1233 	 -3.9106 	 -16.1271 	 
H 	 -58.4996 	 -2.78447 	 -14.8329 	 
C 	 -56.4282 	 -3.16656 	 -15.262 	 
H 	 -55.6603 	 -3.35263 	 -16.008 	 
H 	 -56.1452 	 -2.33963 	 -14.7299 	 
C 	 -56.1777 	 -4.37594 	 -14.305 	 
H 	 -56.8484 	 -4.3654 	 -13.4861 	 
H 	 -56.2812 	 -5.28825 	 -14.9605 	 
H 	 -55.1785 	 -4.35871 	 -13.9227 	 
S 	 -57.9509 	 -1.78141 	 -21.3108 	 
C 	 -58.6629 	 -0.873546 	 -22.6572 	 
C 	 -59.6576 	 -0.0479462 	 -22.2098 	 
C 	 -59.782 	 0.0338528 	 -20.7856 	 
C 	 -58.7972 	 -0.727751 	 -20.177 	 
H 	 -60.2888 	 0.485233 	 -22.8559 	 
C 	 -60.6698 	 1.02568 	 -20.1838 	 
H 	 -60.8576 	 1.83934 	 -20.8676 	 
H 	 -60.2208 	 1.33541 	 -19.2926 	 
C 	 -61.9902 	 0.349228 	 -19.8259 	 
H 	 -62.5014 	 1.15015 	 -19.2927 	 
H 	 -61.8854 	 -0.422954 	 -19.0775 	 
C 	 -62.8897 	 -0.147896 	 -20.9598 	 
H 	 -62.4793 	 -0.945157 	 -21.5675 	 
H 	 -63.3408 	 0.648801 	 -21.5304 	 
H 	 -63.7625 	 -0.540112 	 -20.5116 	 
H 	 -57.4447 	 -0.106802 	 -15.3909 	 
H 	 -58.4666 	 -1.07656 	 -23.7581 	 
