34

S 	 -68.1132 	 11.1881 	 -100.638 	 
C 	 -66.8008 	 12.1222 	 -100.046 	 
C 	 -65.8564 	 11.3904 	 -99.4425 	 
C 	 -66.2256 	 10.002 	 -99.4457 	 
C 	 -67.3248 	 9.6661 	 -100.234 	 
H 	 -65.6574 	 9.29263 	 -98.9843 	 
C 	 -64.656 	 11.8783 	 -98.7044 	 
H 	 -64.6803 	 12.8793 	 -98.9958 	 
H 	 -63.7868 	 11.4994 	 -99.2016 	 
C 	 -64.6635 	 11.7057 	 -97.2073 	 
H 	 -65.3014 	 12.4319 	 -96.6808 	 
H 	 -64.9068 	 10.6168 	 -96.9868 	 
C 	 -63.2581 	 11.8287 	 -96.6076 	 
H 	 -62.8365 	 12.8052 	 -96.8212 	 
H 	 -63.2393 	 11.7576 	 -95.5231 	 
H 	 -62.5283 	 11.1405 	 -97.04 	 
S 	 -69.5583 	 8.06426 	 -99.9564 	 
C 	 -69.4187 	 6.49566 	 -100.675 	 
C 	 -68.2344 	 6.17884 	 -101.295 	 
C 	 -67.2807 	 7.24693 	 -101.033 	 
C 	 -67.8627 	 8.34789 	 -100.394 	 
H 	 -68.0361 	 5.30182 	 -101.83 	 
C 	 -65.8692 	 7.3481 	 -101.63 	 
H 	 -65.1177 	 7.15764 	 -100.793 	 
H 	 -65.8436 	 8.33458 	 -102.082 	 
C 	 -65.572 	 6.38365 	 -102.714 	 
H 	 -66.4238 	 6.28191 	 -103.459 	 
H 	 -65.413 	 5.31236 	 -102.371 	 
C 	 -64.2936 	 6.69972 	 -103.543 	 
H 	 -64.1917 	 7.76648 	 -103.873 	 
H 	 -64.3593 	 6.23895 	 -104.54 	 
H 	 -63.4412 	 6.36413 	 -103.026 	 
H 	 -66.6959 	 13.1748 	 -100.221 	 
H 	 -70.1772 	 5.77336 	 -100.747 	 
