34

S 	 -97.8692 	 -27.6643 	 -61.312 	 
C 	 -99.1192 	 -26.4769 	 -61.3936 	 
C 	 -98.6073 	 -25.2121 	 -61.3544 	 
C 	 -97.1665 	 -25.26 	 -61.3522 	 
C 	 -96.6054 	 -26.4944 	 -61.2829 	 
H 	 -96.4848 	 -24.4424 	 -61.4679 	 
C 	 -99.3502 	 -23.9063 	 -61.6015 	 
H 	 -98.7824 	 -23.1743 	 -61.0173 	 
H 	 -100.379 	 -23.8784 	 -61.1964 	 
C 	 -99.4621 	 -23.3953 	 -63.0735 	 
H 	 -100.235 	 -22.5868 	 -62.9594 	 
H 	 -98.4948 	 -22.9168 	 -63.3561 	 
C 	 -99.8971 	 -24.4417 	 -64.1555 	 
H 	 -100.854 	 -24.8735 	 -63.9782 	 
H 	 -99.8636 	 -23.9671 	 -65.1441 	 
H 	 -99.1995 	 -25.3519 	 -64.132 	 
S 	 -94.2932 	 -26.8771 	 -62.8311 	 
C 	 -92.7554 	 -27.2658 	 -62.1758 	 
C 	 -92.8097 	 -27.1671 	 -60.7922 	 
C 	 -94.1815 	 -26.9589 	 -60.3213 	 
C 	 -95.1461 	 -26.7804 	 -61.3008 	 
H 	 -91.857 	 -27.2137 	 -60.1952 	 
C 	 -94.515 	 -26.8614 	 -58.8272 	 
H 	 -94.3352 	 -27.8692 	 -58.557 	 
H 	 -95.5996 	 -26.6532 	 -58.751 	 
C 	 -93.7312 	 -25.9595 	 -57.8898 	 
H 	 -93.8165 	 -24.9539 	 -58.2073 	 
H 	 -92.6688 	 -26.2923 	 -57.9128 	 
C 	 -94.3122 	 -25.9908 	 -56.4898 	 
H 	 -94.027 	 -24.9973 	 -56.0692 	 
H 	 -93.9426 	 -26.7645 	 -55.7698 	 
H 	 -95.4141 	 -26.0201 	 -56.45 	 
H 	 -100.192 	 -26.726 	 -61.5915 	 
H 	 -91.9621 	 -27.7798 	 -62.7065 	 
