34

S 	 -61.7077 	 14.2654 	 -110.799 	 
C 	 -61.5696 	 12.63 	 -110.146 	 
C 	 -61.0301 	 12.6704 	 -108.858 	 
C 	 -60.5457 	 13.9687 	 -108.472 	 
C 	 -60.7173 	 14.8901 	 -109.49 	 
H 	 -60.0919 	 14.2354 	 -107.564 	 
C 	 -60.8285 	 11.5365 	 -107.981 	 
H 	 -60.4342 	 11.8767 	 -107.015 	 
H 	 -60.0568 	 10.8036 	 -108.474 	 
C 	 -62.0209 	 10.6634 	 -107.75 	 
H 	 -62.8886 	 11.2982 	 -107.557 	 
H 	 -62.2564 	 10.0704 	 -108.629 	 
C 	 -61.8787 	 9.67638 	 -106.599 	 
H 	 -61.6943 	 10.1673 	 -105.593 	 
H 	 -62.859 	 9.15124 	 -106.589 	 
H 	 -61.0259 	 8.99268 	 -106.668 	 
S 	 -61.3307 	 17.4053 	 -110.165 	 
C 	 -60.1985 	 18.7175 	 -109.754 	 
C 	 -59.305 	 18.2844 	 -108.8 	 
C 	 -59.2415 	 16.8802 	 -108.667 	 
C 	 -60.3071 	 16.2682 	 -109.38 	 
H 	 -58.6744 	 19.0262 	 -108.318 	 
C 	 -58.1643 	 16.1176 	 -107.88 	 
H 	 -58.0064 	 15.1904 	 -108.452 	 
H 	 -58.5686 	 15.7814 	 -106.899 	 
C 	 -56.7399 	 16.7277 	 -107.819 	 
H 	 -56.7701 	 17.6266 	 -107.195 	 
H 	 -56.5528 	 17.1402 	 -108.851 	 
C 	 -55.6637 	 15.7481 	 -107.381 	 
H 	 -55.8767 	 14.8471 	 -107.936 	 
H 	 -55.5633 	 15.6218 	 -106.31 	 
H 	 -54.6564 	 16.019 	 -107.772 	 
H 	 -61.9251 	 11.7576 	 -110.579 	 
H 	 -60.2052 	 19.723 	 -110.16 	 
