34

S 	 -92.9358 	 -27.3575 	 -72.2109 	 
C 	 -93.4835 	 -29.0584 	 -72.3076 	 
C 	 -92.4361 	 -29.9235 	 -72.4583 	 
C 	 -91.1774 	 -29.2841 	 -72.5624 	 
C 	 -91.2891 	 -27.9288 	 -72.4064 	 
H 	 -90.2544 	 -29.8229 	 -72.5422 	 
C 	 -92.5412 	 -31.3958 	 -72.6337 	 
H 	 -93.1921 	 -31.8404 	 -71.8586 	 
H 	 -91.651 	 -31.9928 	 -72.5424 	 
C 	 -93.2032 	 -31.7594 	 -73.9801 	 
H 	 -93.5706 	 -32.7749 	 -73.8724 	 
H 	 -94.0926 	 -31.2734 	 -74.2346 	 
C 	 -92.3786 	 -31.6774 	 -75.2356 	 
H 	 -91.3798 	 -31.9901 	 -74.9991 	 
H 	 -92.7182 	 -32.161 	 -76.1462 	 
H 	 -92.3161 	 -30.6454 	 -75.5356 	 
S 	 -89.6335 	 -26.1406 	 -71.1279 	 
C 	 -88.4185 	 -25.2623 	 -72.0506 	 
C 	 -88.3855 	 -25.7498 	 -73.3504 	 
C 	 -89.441 	 -26.6331 	 -73.7039 	 
C 	 -90.1782 	 -27.0074 	 -72.5911 	 
H 	 -87.6094 	 -25.2925 	 -73.9867 	 
C 	 -89.587 	 -27.0415 	 -75.1564 	 
H 	 -89.3149 	 -28.0573 	 -75.3907 	 
H 	 -88.8936 	 -26.4627 	 -75.8435 	 
C 	 -91.0019 	 -26.891 	 -75.6295 	 
H 	 -91.4895 	 -25.9525 	 -75.4307 	 
H 	 -91.7324 	 -27.5568 	 -75.0984 	 
C 	 -91.1923 	 -27.1135 	 -77.1368 	 
H 	 -92.23 	 -26.9796 	 -77.4556 	 
H 	 -90.8105 	 -28.1053 	 -77.277 	 
H 	 -90.6577 	 -26.4956 	 -77.8064 	 
H 	 -94.5196 	 -29.5415 	 -72.3137 	 
H 	 -87.6932 	 -24.5951 	 -71.5028 	 
