34

S 	 -60.7539 	 -59.5412 	 -82.579 	 
C 	 -60.3643 	 -60.2159 	 -81.0465 	 
C 	 -59.8746 	 -59.1942 	 -80.2525 	 
C 	 -59.8465 	 -57.9108 	 -80.8887 	 
C 	 -60.2021 	 -57.9893 	 -82.1957 	 
H 	 -59.3096 	 -57.0543 	 -80.4687 	 
C 	 -59.1902 	 -59.3684 	 -78.8874 	 
H 	 -59.4637 	 -58.5069 	 -78.3202 	 
H 	 -58.1651 	 -59.4088 	 -79.0208 	 
C 	 -59.6309 	 -60.6226 	 -78.1041 	 
H 	 -60.6526 	 -60.5504 	 -77.842 	 
H 	 -59.4169 	 -61.4794 	 -78.7285 	 
C 	 -58.8032 	 -60.8148 	 -76.8425 	 
H 	 -57.7609 	 -60.7288 	 -77.2017 	 
H 	 -58.9316 	 -59.9813 	 -76.0365 	 
H 	 -59.0477 	 -61.7953 	 -76.3387 	 
S 	 -59.9235 	 -56.8935 	 -84.7231 	 
C 	 -60.0129 	 -55.1521 	 -84.8693 	 
C 	 -60.491 	 -54.5062 	 -83.7252 	 
C 	 -60.7185 	 -55.4246 	 -82.6877 	 
C 	 -60.3262 	 -56.7576 	 -82.9902 	 
H 	 -60.5872 	 -53.4738 	 -83.7483 	 
C 	 -61.2644 	 -54.9219 	 -81.3706 	 
H 	 -61.6541 	 -55.7315 	 -80.7853 	 
H 	 -62.1837 	 -54.3389 	 -81.8122 	 
C 	 -60.2839 	 -54.0383 	 -80.545 	 
H 	 -60.4216 	 -52.9831 	 -80.9033 	 
H 	 -59.1649 	 -54.276 	 -80.6478 	 
C 	 -60.4964 	 -54.1767 	 -79.0189 	 
H 	 -59.7963 	 -53.5282 	 -78.4833 	 
H 	 -60.4699 	 -55.2432 	 -78.6742 	 
H 	 -61.548 	 -53.7651 	 -78.7894 	 
H 	 -60.061 	 -61.2442 	 -80.7377 	 
H 	 -59.7398 	 -54.5604 	 -85.7199 	 
