34

S 	 -31.8067 	 -5.06223 	 -4.20724 	 
C 	 -30.4357 	 -5.99727 	 -4.58317 	 
C 	 -30.0558 	 -5.74697 	 -5.86792 	 
C 	 -30.8906 	 -4.81548 	 -6.57198 	 
C 	 -32.0202 	 -4.41857 	 -5.82002 	 
H 	 -30.7533 	 -4.41401 	 -7.54894 	 
C 	 -28.8157 	 -6.3203 	 -6.46986 	 
H 	 -28.0387 	 -6.3615 	 -5.72794 	 
H 	 -28.4287 	 -5.55153 	 -7.20784 	 
C 	 -29.0168 	 -7.61805 	 -7.32808 	 
H 	 -29.6252 	 -8.30105 	 -6.74155 	 
H 	 -29.6826 	 -7.50412 	 -8.1748 	 
C 	 -27.6753 	 -8.1645 	 -7.72174 	 
H 	 -27.7113 	 -9.15307 	 -8.10195 	 
H 	 -27.1465 	 -7.50364 	 -8.37499 	 
H 	 -27.0701 	 -8.30365 	 -6.82554 	 
S 	 -34.2764 	 -3.23884 	 -4.95696 	 
C 	 -35.0754 	 -2.00788 	 -5.93626 	 
C 	 -34.5373 	 -2.1347 	 -7.19756 	 
C 	 -33.4782 	 -3.06492 	 -7.43599 	 
C 	 -33.1767 	 -3.66017 	 -6.17568 	 
H 	 -35.0548 	 -1.60112 	 -8.05738 	 
C 	 -32.8039 	 -3.20735 	 -8.73534 	 
H 	 -33.5419 	 -2.99105 	 -9.42342 	 
H 	 -32.5697 	 -4.24843 	 -8.9128 	 
C 	 -31.4932 	 -2.47962 	 -9.03448 	 
H 	 -30.7124 	 -2.61923 	 -8.26447 	 
H 	 -31.7277 	 -1.42284 	 -9.06162 	 
C 	 -30.8865 	 -3.0485 	 -10.3703 	 
H 	 -30.1751 	 -2.32183 	 -10.7554 	 
H 	 -31.7537 	 -3.04171 	 -11.0666 	 
H 	 -30.4626 	 -4.03781 	 -10.3377 	 
H 	 -29.8572 	 -6.75361 	 -4.007 	 
H 	 -35.8986 	 -1.51359 	 -5.54764 	 
