34

S 	 -46.0476 	 11.0218 	 25.4973 	 
C 	 -47.742 	 10.6949 	 25.4807 	 
C 	 -48.502 	 11.806 	 25.8649 	 
C 	 -47.6432 	 12.9158 	 26.101 	 
C 	 -46.3027 	 12.7232 	 25.7848 	 
H 	 -48.0671 	 13.8574 	 26.502 	 
C 	 -49.9998 	 11.9054 	 26.0711 	 
H 	 -50.4734 	 11.2086 	 25.3982 	 
H 	 -50.4055 	 12.9419 	 25.6861 	 
C 	 -50.5182 	 11.5759 	 27.4501 	 
H 	 -51.5679 	 11.5389 	 27.3652 	 
H 	 -50.1646 	 10.5183 	 27.6102 	 
C 	 -49.9261 	 12.4198 	 28.5509 	 
H 	 -50.1405 	 13.4646 	 28.3156 	 
H 	 -50.2616 	 12.1705 	 29.5617 	 
H 	 -48.8623 	 12.2905 	 28.5239 	 
S 	 -43.5862 	 12.973 	 26.1502 	 
C 	 -42.9001 	 14.5474 	 26.4421 	 
C 	 -43.8732 	 15.5133 	 26.3897 	 
C 	 -45.1687 	 15.0352 	 26.1189 	 
C 	 -45.2201 	 13.6055 	 26.1252 	 
H 	 -43.5283 	 16.495 	 26.5407 	 
C 	 -46.4228 	 15.9283 	 25.9449 	 
H 	 -46.8716 	 15.9093 	 26.9547 	 
H 	 -47.1766 	 15.5503 	 25.2534 	 
C 	 -46.1672 	 17.4025 	 25.5456 	 
H 	 -45.3742 	 17.7949 	 26.2223 	 
H 	 -46.9742 	 18.0304 	 25.7439 	 
C 	 -45.525 	 17.6125 	 24.1512 	 
H 	 -44.7136 	 16.9471 	 23.9884 	 
H 	 -45.1075 	 18.5681 	 23.9608 	 
H 	 -46.1885 	 17.3533 	 23.4255 	 
H 	 -48.1863 	 9.67927 	 25.1708 	 
H 	 -41.9144 	 14.8747 	 26.6745 	 
