34

S 	 -115.168 	 19.7475 	 -118.197 	 
C 	 -116.249 	 20.8726 	 -117.382 	 
C 	 -115.493 	 21.8277 	 -116.678 	 
C 	 -114.152 	 21.9286 	 -117.217 	 
C 	 -113.792 	 20.8239 	 -117.988 	 
H 	 -113.539 	 22.767 	 -117.105 	 
C 	 -116.071 	 22.9406 	 -115.821 	 
H 	 -117.152 	 22.9331 	 -115.638 	 
H 	 -115.979 	 23.8047 	 -116.425 	 
C 	 -115.363 	 23.0584 	 -114.466 	 
H 	 -114.302 	 23.2422 	 -114.642 	 
H 	 -115.777 	 23.9564 	 -113.917 	 
C 	 -115.515 	 21.7532 	 -113.581 	 
H 	 -115 	 20.9281 	 -114.127 	 
H 	 -114.938 	 21.8336 	 -112.629 	 
H 	 -116.568 	 21.3946 	 -113.496 	 
S 	 -112.393 	 20.5866 	 -120.326 	 
C 	 -110.62 	 20.4302 	 -120.236 	 
C 	 -110.164 	 20.5205 	 -118.975 	 
C 	 -111.204 	 20.744 	 -117.981 	 
C 	 -112.493 	 20.6058 	 -118.553 	 
H 	 -109.067 	 20.4841 	 -118.838 	 
C 	 -110.782 	 20.7758 	 -116.538 	 
H 	 -110.59 	 19.7877 	 -116.169 	 
H 	 -111.655 	 21.0242 	 -115.99 	 
C 	 -109.578 	 21.6145 	 -116.066 	 
H 	 -108.734 	 21.3624 	 -116.644 	 
H 	 -109.292 	 21.1867 	 -115.075 	 
C 	 -109.804 	 23.1047 	 -115.96 	 
H 	 -110.709 	 23.2627 	 -115.352 	 
H 	 -109.913 	 23.4189 	 -117.041 	 
H 	 -108.895 	 23.4894 	 -115.498 	 
H 	 -117.246 	 20.6538 	 -117.097 	 
H 	 -110.003 	 19.9356 	 -121.026 	 
