34

S 	 -130.957 	 58.5509 	 -58.9448 	 
C 	 -130.211 	 58.46 	 -60.5636 	 
C 	 -129.4 	 57.3877 	 -60.649 	 
C 	 -129.284 	 56.6552 	 -59.4426 	 
C 	 -130.108 	 57.1463 	 -58.4289 	 
H 	 -128.635 	 55.8505 	 -59.2414 	 
C 	 -128.628 	 56.9642 	 -61.8469 	 
H 	 -129.223 	 57.3327 	 -62.7716 	 
H 	 -128.772 	 55.8816 	 -61.956 	 
C 	 -127.193 	 57.4478 	 -61.9332 	 
H 	 -127.097 	 58.5541 	 -62.0989 	 
H 	 -126.659 	 57.1672 	 -61.0133 	 
C 	 -126.502 	 56.7486 	 -63.0943 	 
H 	 -125.502 	 57.2575 	 -63.214 	 
H 	 -126.291 	 55.6228 	 -63.0579 	 
H 	 -127.054 	 56.9908 	 -64.0289 	 
S 	 -128.751 	 55.9824 	 -56.2973 	 
C 	 -129.642 	 55.642 	 -54.799 	 
C 	 -130.891 	 56.2569 	 -54.7625 	 
C 	 -131.265 	 56.8051 	 -56.0288 	 
C 	 -130.203 	 56.6901 	 -56.9952 	 
H 	 -131.492 	 56.2549 	 -53.8973 	 
C 	 -132.58 	 57.5026 	 -56.3068 	 
H 	 -132.896 	 57.2772 	 -57.3724 	 
H 	 -132.372 	 58.5612 	 -56.1976 	 
C 	 -133.693 	 57.1121 	 -55.377 	 
H 	 -133.498 	 57.5466 	 -54.3946 	 
H 	 -133.895 	 56.0333 	 -55.213 	 
C 	 -134.991 	 57.723 	 -55.8846 	 
H 	 -135.455 	 57.268 	 -56.781 	 
H 	 -134.827 	 58.7601 	 -56.0852 	 
H 	 -135.75 	 57.6228 	 -55.1024 	 
H 	 -130.486 	 59.1833 	 -61.3913 	 
H 	 -129.103 	 55.128 	 -53.9551 	 
