34

S 	 -81.9194 	 -15.1293 	 -53.3012 	 
C 	 -83.6072 	 -14.8433 	 -53.829 	 
C 	 -84.3638 	 -15.9944 	 -53.6938 	 
C 	 -83.5379 	 -17.103 	 -53.2486 	 
C 	 -82.2254 	 -16.8109 	 -53.0486 	 
H 	 -83.916 	 -18.105 	 -53.1323 	 
C 	 -85.8303 	 -16.0195 	 -53.9551 	 
H 	 -86.134 	 -17.0157 	 -54.1999 	 
H 	 -85.8305 	 -15.5544 	 -54.9297 	 
C 	 -86.7516 	 -15.3214 	 -52.9437 	 
H 	 -86.7377 	 -15.8087 	 -51.9348 	 
H 	 -86.4751 	 -14.2583 	 -52.8126 	 
C 	 -88.1778 	 -15.3694 	 -53.557 	 
H 	 -88.5132 	 -16.3994 	 -53.6551 	 
H 	 -88.8356 	 -14.8617 	 -52.8989 	 
H 	 -88.2313 	 -14.8111 	 -54.5509 	 
S 	 -80.9125 	 -17.8778 	 -50.9655 	 
C 	 -79.8844 	 -19.1976 	 -51.2666 	 
C 	 -79.587 	 -19.3758 	 -52.6225 	 
C 	 -80.4866 	 -18.6254 	 -53.4263 	 
C 	 -81.2319 	 -17.7924 	 -52.6552 	 
H 	 -78.9048 	 -20.0953 	 -52.9832 	 
C 	 -80.6472 	 -18.7482 	 -54.9634 	 
H 	 -81.461 	 -18.1027 	 -55.1894 	 
H 	 -80.9653 	 -19.7474 	 -55.1973 	 
C 	 -79.459 	 -18.154 	 -55.768 	 
H 	 -78.6074 	 -18.6182 	 -55.3574 	 
H 	 -79.2858 	 -17.1282 	 -55.5271 	 
C 	 -79.7034 	 -18.4225 	 -57.2813 	 
H 	 -78.82 	 -18.1781 	 -57.8744 	 
H 	 -80.5094 	 -17.8181 	 -57.6931 	 
H 	 -79.9017 	 -19.4685 	 -57.285 	 
H 	 -84.0037 	 -14.0043 	 -54.3674 	 
H 	 -79.2171 	 -19.7296 	 -50.4941 	 
