34

S 	 -106.621 	 34.9989 	 -13.3381 	 
C 	 -107.058 	 35.6345 	 -14.9296 	 
C 	 -106.926 	 36.9935 	 -15.0252 	 
C 	 -106.301 	 37.5435 	 -13.834 	 
C 	 -106.07 	 36.6033 	 -12.8502 	 
H 	 -106.062 	 38.6063 	 -13.6674 	 
C 	 -107.206 	 37.8835 	 -16.1799 	 
H 	 -108.043 	 37.4583 	 -16.7122 	 
H 	 -106.392 	 37.908 	 -16.9101 	 
C 	 -107.687 	 39.3877 	 -15.9249 	 
H 	 -108.601 	 39.3367 	 -15.336 	 
H 	 -106.905 	 39.8544 	 -15.3882 	 
C 	 -107.864 	 40.1121 	 -17.3128 	 
H 	 -107.126 	 39.7097 	 -17.9737 	 
H 	 -108.865 	 39.8844 	 -17.7674 	 
H 	 -107.785 	 41.2108 	 -17.032 	 
S 	 -106.086 	 37.8752 	 -10.4432 	 
C 	 -104.725 	 37.72 	 -9.45975 	 
C 	 -103.878 	 36.7012 	 -9.78564 	 
C 	 -104.186 	 36.221 	 -11.086 	 
C 	 -105.318 	 36.858 	 -11.6402 	 
H 	 -103.035 	 36.6027 	 -9.10659 	 
C 	 -103.189 	 35.272 	 -11.7777 	 
H 	 -102.218 	 35.6771 	 -11.652 	 
H 	 -103.358 	 35.2026 	 -12.8715 	 
C 	 -103.107 	 33.8143 	 -11.1374 	 
H 	 -104.073 	 33.3463 	 -10.9085 	 
H 	 -102.81 	 33.9 	 -10.1678 	 
C 	 -102.321 	 32.8309 	 -11.9441 	 
H 	 -102.171 	 31.9148 	 -11.3833 	 
H 	 -101.373 	 33.2141 	 -12.2791 	 
H 	 -102.976 	 32.5901 	 -12.7822 	 
H 	 -107.346 	 35.0846 	 -15.7805 	 
H 	 -104.556 	 38.3436 	 -8.55003 	 
