34

S 	 39.8001 	 -19.3934 	 -110.044 	 
C 	 38.6771 	 -18.8318 	 -111.297 	 
C 	 38.2779 	 -17.5219 	 -111.059 	 
C 	 38.8277 	 -17.0529 	 -109.887 	 
C 	 39.5958 	 -17.9276 	 -109.162 	 
H 	 38.6318 	 -16.1269 	 -109.28 	 
C 	 37.202 	 -16.7569 	 -111.765 	 
H 	 37.0345 	 -17.452 	 -112.598 	 
H 	 37.5475 	 -15.8186 	 -112.184 	 
C 	 35.888 	 -16.5116 	 -111.058 	 
H 	 35.5295 	 -17.3324 	 -110.439 	 
H 	 36.0075 	 -15.7087 	 -110.279 	 
C 	 34.7225 	 -16.023 	 -111.924 	 
H 	 33.6718 	 -15.9254 	 -111.438 	 
H 	 35.0497 	 -15.0244 	 -112.265 	 
H 	 34.6519 	 -16.6957 	 -112.755 	 
S 	 40.7814 	 -16.153 	 -107.418 	 
C 	 41.5022 	 -16.7892 	 -105.981 	 
C 	 40.9234 	 -17.9493 	 -105.614 	 
C 	 40.168 	 -18.4943 	 -106.675 	 
C 	 39.9918 	 -17.6654 	 -107.764 	 
H 	 41.1243 	 -18.5242 	 -104.76 	 
C 	 39.5132 	 -19.8192 	 -106.524 	 
H 	 40.2384 	 -20.5686 	 -106.768 	 
H 	 38.7121 	 -19.9706 	 -107.285 	 
C 	 38.8792 	 -20.139 	 -105.166 	 
H 	 37.9361 	 -19.5399 	 -105.178 	 
H 	 39.3821 	 -19.7988 	 -104.247 	 
C 	 38.5175 	 -21.6058 	 -105.061 	 
H 	 37.7687 	 -21.8852 	 -105.749 	 
H 	 38.255 	 -21.5957 	 -103.971 	 
H 	 39.3795 	 -22.1763 	 -105.139 	 
H 	 38.3358 	 -19.3293 	 -112.242 	 
H 	 42.3367 	 -16.4423 	 -105.44 	 
