34

S 	 -119.487 	 20.2829 	 -25.59 	 
C 	 -118.74 	 20.2736 	 -27.1744 	 
C 	 -118.44 	 21.5582 	 -27.5785 	 
C 	 -118.725 	 22.5499 	 -26.5793 	 
C 	 -119.317 	 22.0199 	 -25.5066 	 
H 	 -118.443 	 23.6023 	 -26.5111 	 
C 	 -117.719 	 21.9331 	 -28.8383 	 
H 	 -117.799 	 22.9653 	 -29.032 	 
H 	 -118.083 	 21.4572 	 -29.7703 	 
C 	 -116.21 	 21.7227 	 -28.8886 	 
H 	 -115.805 	 22.349 	 -28.1079 	 
H 	 -116.045 	 20.7347 	 -28.604 	 
C 	 -115.534 	 21.9737 	 -30.2783 	 
H 	 -115.508 	 23.005 	 -30.5545 	 
H 	 -114.499 	 21.6492 	 -30.1341 	 
H 	 -115.901 	 21.3436 	 -31.0693 	 
S 	 -119.179 	 22.063 	 -22.709 	 
C 	 -119.992 	 23.3805 	 -21.8321 	 
C 	 -120.583 	 24.2275 	 -22.694 	 
C 	 -120.306 	 23.9512 	 -24.1224 	 
C 	 -119.672 	 22.7422 	 -24.2895 	 
H 	 -121.068 	 25.1674 	 -22.2886 	 
C 	 -120.933 	 24.8266 	 -25.2549 	 
H 	 -121.784 	 24.279 	 -25.6549 	 
H 	 -120.337 	 24.8107 	 -26.1278 	 
C 	 -121.321 	 26.249 	 -24.9033 	 
H 	 -120.53 	 26.7822 	 -24.3961 	 
H 	 -122.122 	 26.153 	 -24.1204 	 
C 	 -121.908 	 26.8849 	 -26.1554 	 
H 	 -122.216 	 27.8312 	 -25.8323 	 
H 	 -122.604 	 26.2605 	 -26.715 	 
H 	 -121.124 	 27.1155 	 -26.8158 	 
H 	 -118.63 	 19.3465 	 -27.7653 	 
H 	 -119.978 	 23.5916 	 -20.774 	 
