34

S 	 -69.1085 	 18.0089 	 -76.7431 	 
C 	 -68.8865 	 16.6219 	 -77.7124 	 
C 	 -68.7461 	 15.4596 	 -76.9961 	 
C 	 -68.7943 	 15.7742 	 -75.6078 	 
C 	 -69.0013 	 17.1678 	 -75.2944 	 
H 	 -68.6781 	 15.086 	 -74.7461 	 
C 	 -68.2885 	 14.1306 	 -77.4897 	 
H 	 -68.9098 	 13.8021 	 -78.3258 	 
H 	 -68.4924 	 13.338 	 -76.7873 	 
C 	 -66.8445 	 14.0732 	 -78.0568 	 
H 	 -66.7376 	 13.1161 	 -78.6433 	 
H 	 -66.7621 	 14.9354 	 -78.7664 	 
C 	 -65.7008 	 14.1779 	 -77.0063 	 
H 	 -65.6239 	 15.148 	 -76.5061 	 
H 	 -65.8247 	 13.424 	 -76.199 	 
H 	 -64.7067 	 13.9697 	 -77.468 	 
S 	 -70.4083 	 18.5897 	 -73.2633 	 
C 	 -69.5399 	 19.0858 	 -71.9048 	 
C 	 -68.3468 	 18.4008 	 -71.8006 	 
C 	 -68.0091 	 17.6167 	 -72.962 	 
C 	 -68.9872 	 17.6854 	 -73.9553 	 
H 	 -67.6557 	 18.4043 	 -70.8849 	 
C 	 -66.6992 	 16.8525 	 -72.9982 	 
H 	 -66.7605 	 16.0358 	 -73.6942 	 
H 	 -66.6118 	 16.2147 	 -72.058 	 
C 	 -65.3394 	 17.6294 	 -73.1709 	 
H 	 -65.338 	 18.4603 	 -72.5404 	 
H 	 -65.3377 	 18.0446 	 -74.1335 	 
C 	 -64.2225 	 16.7115 	 -73.0444 	 
H 	 -64.1511 	 16.2242 	 -73.9952 	 
H 	 -64.5215 	 15.9737 	 -72.2658 	 
H 	 -63.2818 	 17.1766 	 -72.7955 	 
H 	 -68.6081 	 16.5998 	 -78.8076 	 
H 	 -69.9674 	 19.6943 	 -71.0592 	 
