34

S 	 -126.543 	 68.4662 	 -61.7926 	 
C 	 -125.144 	 69.3963 	 -61.5704 	 
C 	 -125.271 	 70.6997 	 -61.9826 	 
C 	 -126.651 	 71.0644 	 -62.231 	 
C 	 -127.433 	 69.9155 	 -62.2688 	 
H 	 -126.994 	 72.0724 	 -62.5802 	 
C 	 -124.123 	 71.6616 	 -62.2559 	 
H 	 -123.266 	 71.0652 	 -61.9951 	 
H 	 -124.155 	 72.5849 	 -61.6628 	 
C 	 -123.825 	 72.061 	 -63.743 	 
H 	 -124.495 	 72.9753 	 -64.0067 	 
H 	 -122.844 	 72.4678 	 -63.8327 	 
C 	 -124.005 	 70.9404 	 -64.8087 	 
H 	 -123.807 	 71.1921 	 -65.8691 	 
H 	 -123.587 	 70.0503 	 -64.4597 	 
H 	 -125.026 	 70.6324 	 -64.9508 	 
S 	 -129.959 	 69.3464 	 -61.4142 	 
C 	 -131.244 	 69.5124 	 -62.5567 	 
C 	 -130.902 	 70.0646 	 -63.7222 	 
C 	 -129.444 	 70.2141 	 -63.802 	 
C 	 -128.853 	 69.8821 	 -62.6032 	 
H 	 -131.58 	 70.1409 	 -64.558 	 
C 	 -128.766 	 70.6034 	 -65.153 	 
H 	 -127.907 	 71.1415 	 -64.8936 	 
H 	 -129.39 	 71.352 	 -65.5224 	 
C 	 -128.594 	 69.5596 	 -66.2552 	 
H 	 -128.274 	 70.1343 	 -67.1717 	 
H 	 -129.537 	 69.0546 	 -66.4975 	 
C 	 -127.622 	 68.528 	 -65.9654 	 
H 	 -127.445 	 68.2153 	 -66.9895 	 
H 	 -128.037 	 67.6306 	 -65.4849 	 
H 	 -126.76 	 68.9163 	 -65.4281 	 
H 	 -124.177 	 69.0768 	 -61.1786 	 
H 	 -132.271 	 69.2189 	 -62.3144 	 
