34

S 	 32.4049 	 0.121913 	 -114.714 	 
C 	 31.7178 	 0.916431 	 -116.152 	 
C 	 30.3552 	 0.729604 	 -116.204 	 
C 	 29.8477 	 0.133119 	 -115.066 	 
C 	 30.7979 	 -0.217716 	 -114.062 	 
H 	 28.8052 	 -0.0155138 	 -114.856 	 
C 	 29.4649 	 1.4188 	 -117.168 	 
H 	 28.5313 	 0.871468 	 -117.084 	 
H 	 29.8232 	 1.20051 	 -118.196 	 
C 	 29.1827 	 2.9187 	 -116.762 	 
H 	 28.8509 	 2.9432 	 -115.723 	 
H 	 30.1388 	 3.44325 	 -116.95 	 
C 	 28.049 	 3.50208 	 -117.577 	 
H 	 27.6627 	 4.41478 	 -117.155 	 
H 	 28.3953 	 3.639 	 -118.563 	 
H 	 27.2022 	 2.83699 	 -117.599 	 
S 	 29.807 	 -2.41206 	 -112.83 	 
C 	 29.88 	 -2.61272 	 -111.052 	 
C 	 30.4874 	 -1.49081 	 -110.504 	 
C 	 30.9231 	 -0.526788 	 -111.474 	 
C 	 30.5734 	 -0.865939 	 -112.779 	 
H 	 30.6043 	 -1.45999 	 -109.483 	 
C 	 31.7275 	 0.694974 	 -111.055 	 
H 	 32.5767 	 0.630626 	 -111.677 	 
H 	 32.0905 	 0.621344 	 -110.083 	 
C 	 30.9458 	 2.02052 	 -111.307 	 
H 	 30.8209 	 1.94153 	 -112.371 	 
H 	 31.5507 	 2.92935 	 -111.124 	 
C 	 29.452 	 2.21378 	 -110.839 	 
H 	 29.2599 	 1.93558 	 -109.8 	 
H 	 28.7512 	 1.86307 	 -111.519 	 
H 	 29.3281 	 3.28359 	 -110.843 	 
H 	 32.2801 	 1.58314 	 -116.845 	 
H 	 29.425 	 -3.3733 	 -110.493 	 
