34

S 	 -127.758 	 67.8211 	 -63.5154 	 
C 	 -126.437 	 68.98 	 -63.303 	 
C 	 -126.946 	 70.2304 	 -62.9459 	 
C 	 -128.385 	 70.3268 	 -62.9747 	 
C 	 -129.018 	 69.133 	 -63.3862 	 
H 	 -129 	 71.1417 	 -62.7286 	 
C 	 -126.093 	 71.5054 	 -62.6639 	 
H 	 -125.001 	 71.3387 	 -62.7697 	 
H 	 -126.217 	 71.5995 	 -61.5633 	 
C 	 -126.311 	 72.7087 	 -63.5664 	 
H 	 -127.208 	 73.2426 	 -63.3478 	 
H 	 -125.42 	 73.3443 	 -63.3629 	 
C 	 -126.346 	 72.3986 	 -65.0855 	 
H 	 -126.227 	 73.2415 	 -65.7054 	 
H 	 -125.55 	 71.7152 	 -65.4109 	 
H 	 -127.282 	 71.8821 	 -65.3482 	 
S 	 -131.19 	 67.7441 	 -62.3687 	 
C 	 -132.709 	 67.8145 	 -63.2009 	 
C 	 -132.675 	 68.7917 	 -64.2023 	 
C 	 -131.352 	 69.2884 	 -64.4151 	 
C 	 -130.431 	 68.7817 	 -63.5625 	 
H 	 -133.552 	 68.9269 	 -64.834 	 
C 	 -130.976 	 70.4209 	 -65.43 	 
H 	 -129.931 	 70.7407 	 -65.2619 	 
H 	 -131.613 	 71.2728 	 -65.1188 	 
C 	 -131.084 	 70.061 	 -66.8767 	 
H 	 -130.627 	 70.849 	 -67.4808 	 
H 	 -132.091 	 69.8226 	 -67.2516 	 
C 	 -130.334 	 68.7497 	 -67.2211 	 
H 	 -130.747 	 67.771 	 -66.8345 	 
H 	 -129.285 	 68.8521 	 -66.9337 	 
H 	 -130.237 	 68.7407 	 -68.2942 	 
H 	 -125.343 	 68.73 	 -63.3306 	 
H 	 -133.567 	 67.211 	 -62.873 	 
