34

S 	 -122.211 	 67.4005 	 -39.7764 	 
C 	 -121.431 	 67.8764 	 -38.2246 	 
C 	 -122.089 	 67.3819 	 -37.1156 	 
C 	 -123.335 	 66.8082 	 -37.6452 	 
C 	 -123.503 	 66.6781 	 -39.0174 	 
H 	 -124.068 	 66.4404 	 -37.0068 	 
C 	 -121.987 	 67.8372 	 -35.6961 	 
H 	 -123.07 	 67.9751 	 -35.2916 	 
H 	 -121.561 	 68.8813 	 -35.5261 	 
C 	 -121.134 	 66.9411 	 -34.7761 	 
H 	 -121.129 	 67.3142 	 -33.7789 	 
H 	 -121.602 	 65.9652 	 -34.5741 	 
C 	 -119.63 	 66.7221 	 -34.9984 	 
H 	 -119.324 	 66.4025 	 -35.9687 	 
H 	 -119.075 	 67.6568 	 -34.805 	 
H 	 -119.285 	 66.019 	 -34.3443 	 
S 	 -125.405 	 67.0987 	 -41.0192 	 
C 	 -126.576 	 65.9679 	 -41.3155 	 
C 	 -126.546 	 64.8525 	 -40.4592 	 
C 	 -125.466 	 65.0091 	 -39.541 	 
C 	 -124.689 	 66.1502 	 -39.7468 	 
H 	 -127.228 	 64.066 	 -40.5706 	 
C 	 -125.18 	 63.9646 	 -38.4829 	 
H 	 -125.908 	 63.9279 	 -37.7147 	 
H 	 -124.212 	 64.3022 	 -37.9596 	 
C 	 -124.987 	 62.4772 	 -38.8847 	 
H 	 -124.327 	 62.7028 	 -39.6456 	 
H 	 -125.889 	 62.149 	 -39.2923 	 
C 	 -124.522 	 61.5881 	 -37.7629 	 
H 	 -124.383 	 60.5862 	 -38.2291 	 
H 	 -125.263 	 61.5356 	 -36.922 	 
H 	 -123.697 	 61.9063 	 -37.0732 	 
H 	 -120.663 	 68.6619 	 -38.0614 	 
H 	 -127.302 	 66.1189 	 -42.0885 	 
