34

S 	 -103.3 	 19.5102 	 -113.201 	 
C 	 -103.336 	 17.7735 	 -113.372 	 
C 	 -104.615 	 17.2505 	 -113.281 	 
C 	 -105.6 	 18.2869 	 -113.213 	 
C 	 -105.092 	 19.6049 	 -113.426 	 
H 	 -106.609 	 18.0811 	 -113.077 	 
C 	 -104.884 	 15.8004 	 -113.185 	 
H 	 -104.358 	 15.2643 	 -114.037 	 
H 	 -105.905 	 15.6472 	 -113.482 	 
C 	 -104.662 	 15.2128 	 -111.771 	 
H 	 -104.423 	 14.1151 	 -111.841 	 
H 	 -103.84 	 15.6592 	 -111.298 	 
C 	 -105.773 	 15.6217 	 -110.78 	 
H 	 -106.785 	 15.3471 	 -111.101 	 
H 	 -105.532 	 15.1923 	 -109.78 	 
H 	 -105.904 	 16.6699 	 -110.719 	 
S 	 -105.68 	 21.5862 	 -111.628 	 
C 	 -106.828 	 22.8411 	 -112.041 	 
C 	 -107.449 	 22.5865 	 -113.21 	 
C 	 -106.952 	 21.3921 	 -113.878 	 
C 	 -105.837 	 20.8345 	 -113.212 	 
H 	 -108.155 	 23.2957 	 -113.667 	 
C 	 -107.487 	 20.9513 	 -115.227 	 
H 	 -107.308 	 19.8729 	 -115.401 	 
H 	 -106.895 	 21.3634 	 -116.155 	 
C 	 -108.988 	 21.0489 	 -115.311 	 
H 	 -109.283 	 22.0471 	 -115.073 	 
H 	 -109.575 	 20.34 	 -114.615 	 
C 	 -109.522 	 20.747 	 -116.78 	 
H 	 -109.21 	 19.7855 	 -116.952 	 
H 	 -109.052 	 21.4473 	 -117.423 	 
H 	 -110.579 	 20.7117 	 -116.821 	 
H 	 -102.459 	 17.1839 	 -113.341 	 
H 	 -107.176 	 23.5745 	 -111.386 	 
