34

S 	 -32.5558 	 10.2217 	 9.89565 	 
C 	 -33.2382 	 11.7775 	 9.50209 	 
C 	 -32.5339 	 12.7559 	 10.2791 	 
C 	 -31.6602 	 12.1772 	 11.2812 	 
C 	 -31.5925 	 10.7927 	 11.1899 	 
H 	 -30.9618 	 12.6637 	 11.8965 	 
C 	 -32.7636 	 14.2305 	 10.0429 	 
H 	 -33.5187 	 14.4415 	 10.7604 	 
H 	 -33.2676 	 14.3656 	 9.10292 	 
C 	 -31.5693 	 15.2324 	 10.1218 	 
H 	 -31.3206 	 15.6875 	 11.0656 	 
H 	 -30.603 	 14.769 	 10.0127 	 
C 	 -31.7529 	 16.3568 	 9.12574 	 
H 	 -32.8006 	 16.6557 	 9.22 	 
H 	 -31.1212 	 17.1775 	 9.25773 	 
H 	 -31.5539 	 16.0183 	 8.09145 	 
S 	 -29.8877 	 8.55115 	 11.1772 	 
C 	 -29.0925 	 8.27794 	 12.6615 	 
C 	 -29.6281 	 8.88875 	 13.7566 	 
C 	 -30.6364 	 9.81587 	 13.3545 	 
C 	 -30.774 	 9.85428 	 12.0104 	 
H 	 -29.3542 	 8.58783 	 14.7229 	 
C 	 -31.3802 	 10.5659 	 14.3863 	 
H 	 -31.2385 	 11.594 	 14.3623 	 
H 	 -31.1665 	 10.127 	 15.3958 	 
C 	 -32.9374 	 10.405 	 14.4203 	 
H 	 -33.2064 	 9.40986 	 14.7757 	 
H 	 -33.4499 	 10.5112 	 13.4171 	 
C 	 -33.4984 	 11.4411 	 15.4338 	 
H 	 -33.486 	 12.393 	 14.9508 	 
H 	 -32.9641 	 11.5328 	 16.3592 	 
H 	 -34.5637 	 11.4952 	 15.741 	 
H 	 -33.7668 	 11.9776 	 8.55839 	 
H 	 -28.4436 	 7.3816 	 12.7504 	 
