34

S 	 -28.2059 	 17.4999 	 6.27155 	 
C 	 -29.8962 	 17.0465 	 6.18982 	 
C 	 -30.5266 	 17.4802 	 7.32507 	 
C 	 -29.6594 	 17.9395 	 8.31525 	 
C 	 -28.3259 	 18.0946 	 7.94952 	 
H 	 -29.9407 	 18.1835 	 9.29384 	 
C 	 -31.9448 	 17.179 	 7.59013 	 
H 	 -32.4086 	 17.3488 	 6.59129 	 
H 	 -32.2879 	 17.8962 	 8.32683 	 
C 	 -32.2322 	 15.743 	 8.13691 	 
H 	 -31.8079 	 14.9449 	 7.623 	 
H 	 -31.7062 	 15.6845 	 9.04778 	 
C 	 -33.7154 	 15.4387 	 8.38486 	 
H 	 -34.2848 	 14.9835 	 7.54891 	 
H 	 -33.8376 	 14.9001 	 9.30444 	 
H 	 -34.1023 	 16.4257 	 8.58778 	 
S 	 -27.5159 	 19.2131 	 10.3099 	 
C 	 -25.8496 	 19.6737 	 10.5123 	 
C 	 -25.1633 	 19.5151 	 9.35246 	 
C 	 -25.8951 	 19.0106 	 8.21639 	 
C 	 -27.209 	 18.6539 	 8.65748 	 
H 	 -24.1124 	 19.7439 	 9.36503 	 
C 	 -25.3113 	 18.717 	 6.79576 	 
H 	 -25.6416 	 17.6315 	 6.58365 	 
H 	 -24.2072 	 18.6669 	 7.06128 	 
C 	 -25.7398 	 19.6552 	 5.57083 	 
H 	 -25.4884 	 20.6135 	 5.90068 	 
H 	 -26.7664 	 19.6754 	 5.38296 	 
C 	 -24.9846 	 19.1688 	 4.32757 	 
H 	 -25.2443 	 18.1062 	 4.09335 	 
H 	 -23.9213 	 19.1695 	 4.63673 	 
H 	 -25.1821 	 19.8439 	 3.47825 	 
H 	 -30.3735 	 16.6359 	 5.29051 	 
H 	 -25.3286 	 20.0259 	 11.3829 	 
