34

S 	 -123.29 	 61.8187 	 -54.9849 	 
C 	 -123.765 	 62.631 	 -56.4269 	 
C 	 -124.666 	 63.6642 	 -56.1132 	 
C 	 -125.203 	 63.487 	 -54.7818 	 
C 	 -124.692 	 62.388 	 -54.1213 	 
H 	 -125.981 	 64.057 	 -54.4265 	 
C 	 -125.385 	 64.6728 	 -57.081 	 
H 	 -124.641 	 65.3683 	 -57.5252 	 
H 	 -126.065 	 65.2642 	 -56.4601 	 
C 	 -126.164 	 64.0062 	 -58.2157 	 
H 	 -126.441 	 64.8603 	 -58.8557 	 
H 	 -125.527 	 63.3062 	 -58.7377 	 
C 	 -127.521 	 63.3558 	 -57.8459 	 
H 	 -128.172 	 63.3071 	 -58.7548 	 
H 	 -127.378 	 62.3593 	 -57.4358 	 
H 	 -128.145 	 64.049 	 -57.2714 	 
S 	 -126.911 	 61.6856 	 -52.6785 	 
C 	 -126.752 	 60.7674 	 -51.1934 	 
C 	 -125.407 	 60.7636 	 -50.8223 	 
C 	 -124.454 	 61.3428 	 -51.7373 	 
C 	 -125.132 	 61.8801 	 -52.8222 	 
H 	 -125.075 	 60.2553 	 -49.8387 	 
C 	 -122.96 	 61.4225 	 -51.378 	 
H 	 -122.458 	 61.7573 	 -52.3332 	 
H 	 -122.662 	 60.4188 	 -51.1835 	 
C 	 -122.563 	 62.2837 	 -50.1147 	 
H 	 -122.645 	 61.6594 	 -49.2272 	 
H 	 -123.246 	 63.1368 	 -50.0301 	 
C 	 -121.148 	 62.7461 	 -50.108 	 
H 	 -120.858 	 63.1631 	 -49.1673 	 
H 	 -121.066 	 63.5251 	 -50.8291 	 
H 	 -120.414 	 62.0188 	 -50.4017 	 
H 	 -123.337 	 62.4118 	 -57.4232 	 
H 	 -127.425 	 60.1845 	 -50.6596 	 
