34

S 	 -138.567 	 4.81377 	 3.87522 	 
C 	 -138.804 	 4.97269 	 2.14455 	 
C 	 -137.764 	 5.66129 	 1.58259 	 
C 	 -136.817 	 6.13526 	 2.57097 	 
C 	 -137.222 	 5.79339 	 3.82753 	 
H 	 -135.878 	 6.59389 	 2.29125 	 
C 	 -137.622 	 5.9993 	 0.0973365 	 
H 	 -137.846 	 5.09928 	 -0.448208 	 
H 	 -136.559 	 6.1319 	 -0.0810622 	 
C 	 -138.462 	 7.22749 	 -0.438982 	 
H 	 -137.912 	 7.68071 	 -1.25592 	 
H 	 -139.512 	 6.96467 	 -0.672046 	 
C 	 -138.465 	 8.36438 	 0.58232 	 
H 	 -138.708 	 8.09031 	 1.62239 	 
H 	 -137.446 	 8.78611 	 0.779045 	 
H 	 -139.203 	 9.17173 	 0.415226 	 
S 	 -137.332 	 7.16598 	 6.13995 	 
C 	 -135.906 	 7.25447 	 7.16237 	 
C 	 -134.873 	 6.43255 	 6.76617 	 
C 	 -135.211 	 5.79637 	 5.47259 	 
C 	 -136.509 	 6.0926 	 5.00987 	 
H 	 -133.931 	 6.38372 	 7.31772 	 
C 	 -134.293 	 4.90316 	 4.74033 	 
H 	 -134.204 	 5.20887 	 3.68508 	 
H 	 -134.823 	 3.96682 	 4.60737 	 
C 	 -132.894 	 4.7202 	 5.34681 	 
H 	 -132.455 	 3.81933 	 4.93759 	 
H 	 -132.926 	 4.695 	 6.43312 	 
C 	 -131.98 	 5.90293 	 4.96316 	 
H 	 -131.066 	 5.89022 	 5.55776 	 
H 	 -132.448 	 6.88873 	 5.07936 	 
H 	 -131.813 	 5.78639 	 3.87375 	 
H 	 -139.611 	 4.47244 	 1.59649 	 
H 	 -135.787 	 7.81743 	 8.07692 	 
