34

S 	 -125.274 	 68.031 	 -43.0721 	 
C 	 -126.826 	 68.1243 	 -42.3706 	 
C 	 -127.097 	 69.3222 	 -41.7935 	 
C 	 -126.051 	 70.2876 	 -42.0175 	 
C 	 -124.961 	 69.7418 	 -42.6519 	 
H 	 -126.049 	 71.3082 	 -41.6457 	 
C 	 -128.436 	 69.7019 	 -41.1569 	 
H 	 -129.252 	 69.2598 	 -41.7946 	 
H 	 -128.645 	 70.7885 	 -41.3878 	 
C 	 -128.808 	 69.2507 	 -39.7037 	 
H 	 -128.813 	 68.1834 	 -39.6945 	 
H 	 -128.013 	 69.4907 	 -39.113 	 
C 	 -130.062 	 69.8787 	 -39.0354 	 
H 	 -130.234 	 70.8043 	 -39.498 	 
H 	 -130.964 	 69.2665 	 -39.2231 	 
H 	 -129.915 	 69.9061 	 -37.9163 	 
S 	 -122.262 	 70.1139 	 -41.8448 	 
C 	 -121.332 	 71.4217 	 -42.5417 	 
C 	 -121.989 	 71.8662 	 -43.6997 	 
C 	 -123.326 	 71.3847 	 -43.8099 	 
C 	 -123.693 	 70.4435 	 -42.8679 	 
H 	 -121.567 	 72.5884 	 -44.3642 	 
C 	 -124.335 	 71.8597 	 -44.8892 	 
H 	 -125.321 	 71.7179 	 -44.5362 	 
H 	 -124.23 	 71.1451 	 -45.7237 	 
C 	 -124.256 	 73.3556 	 -45.2943 	 
H 	 -123.248 	 73.5991 	 -45.5314 	 
H 	 -124.577 	 74.0283 	 -44.559 	 
C 	 -125.08 	 73.7226 	 -46.552 	 
H 	 -126.113 	 73.5082 	 -46.3769 	 
H 	 -124.644 	 73.2515 	 -47.4511 	 
H 	 -125.054 	 74.7706 	 -46.6668 	 
H 	 -127.54 	 67.2937 	 -42.2837 	 
H 	 -120.326 	 71.6685 	 -42.3171 	 
