34

S 	 -110.339 	 54.213 	 -91.2323 	 
C 	 -110.426 	 54.4524 	 -89.5222 	 
C 	 -111.431 	 53.7317 	 -88.9028 	 
C 	 -112.062 	 52.8167 	 -89.8082 	 
C 	 -111.588 	 52.924 	 -91.1372 	 
H 	 -112.873 	 52.172 	 -89.649 	 
C 	 -111.719 	 53.656 	 -87.3556 	 
H 	 -112.821 	 53.5898 	 -87.2772 	 
H 	 -111.475 	 54.5134 	 -86.7815 	 
C 	 -111.164 	 52.3427 	 -86.6854 	 
H 	 -111.173 	 52.5137 	 -85.6219 	 
H 	 -111.716 	 51.4473 	 -86.8231 	 
C 	 -109.757 	 51.9611 	 -87.1654 	 
H 	 -109.16 	 52.8844 	 -87.1436 	 
H 	 -109.413 	 51.2747 	 -86.4326 	 
H 	 -109.655 	 51.3526 	 -88.0925 	 
S 	 -112.74 	 53.0282 	 -93.591 	 
C 	 -113.159 	 51.5375 	 -94.4994 	 
C 	 -112.761 	 50.4418 	 -93.7918 	 
C 	 -112.13 	 50.7689 	 -92.5074 	 
C 	 -112.073 	 52.108 	 -92.206 	 
H 	 -112.859 	 49.4236 	 -94.2179 	 
C 	 -111.743 	 49.5872 	 -91.6078 	 
H 	 -112.437 	 48.7532 	 -91.8148 	 
H 	 -111.835 	 49.7265 	 -90.5448 	 
C 	 -110.27 	 49.1534 	 -91.7988 	 
H 	 -110.062 	 48.3745 	 -91.1054 	 
H 	 -109.661 	 50.022 	 -91.4874 	 
C 	 -109.798 	 48.7728 	 -93.2109 	 
H 	 -108.724 	 48.4067 	 -93.035 	 
H 	 -109.798 	 49.6937 	 -93.8916 	 
H 	 -110.499 	 48.0026 	 -93.6785 	 
H 	 -109.759 	 55.1219 	 -88.9114 	 
H 	 -113.587 	 51.5921 	 -95.4566 	 
