34

S 	 -57.883 	 11.3106 	 -94.288 	 
C 	 -57.4121 	 10.4569 	 -95.7647 	 
C 	 -58.3457 	 10.6819 	 -96.7694 	 
C 	 -59.299 	 11.6603 	 -96.4057 	 
C 	 -59.1732 	 12.1428 	 -95.1334 	 
H 	 -60.0762 	 12.1353 	 -96.9812 	 
C 	 -58.33 	 10.1573 	 -98.1573 	 
H 	 -58.355 	 9.0523 	 -98.1501 	 
H 	 -57.3178 	 10.3411 	 -98.5154 	 
C 	 -59.3577 	 10.6243 	 -99.1582 	 
H 	 -60.3628 	 10.4425 	 -98.7806 	 
H 	 -59.1829 	 11.6716 	 -99.3713 	 
C 	 -59.2307 	 9.77738 	 -100.46 	 
H 	 -60.0432 	 10.0267 	 -101.137 	 
H 	 -58.2834 	 9.92254 	 -101.031 	 
H 	 -59.4282 	 8.68731 	 -100.361 	 
S 	 -61.7654 	 12.6747 	 -94.4128 	 
C 	 -62.1761 	 14.3143 	 -93.8909 	 
C 	 -61.0654 	 15.0862 	 -93.9096 	 
C 	 -59.839 	 14.4413 	 -94.149 	 
C 	 -60.0435 	 13.0794 	 -94.4721 	 
H 	 -61.2025 	 16.0929 	 -93.5436 	 
C 	 -58.4775 	 15.0347 	 -94.1205 	 
H 	 -57.7594 	 14.2062 	 -93.863 	 
H 	 -58.4632 	 15.7204 	 -93.3123 	 
C 	 -57.9532 	 15.8429 	 -95.3765 	 
H 	 -57.5575 	 15.2008 	 -96.1703 	 
H 	 -56.9979 	 16.2102 	 -95.129 	 
C 	 -58.7587 	 16.9505 	 -95.9555 	 
H 	 -59.1712 	 17.6284 	 -95.2502 	 
H 	 -59.6453 	 16.3588 	 -96.2453 	 
H 	 -58.316 	 17.3582 	 -96.878 	 
H 	 -56.5592 	 9.7155 	 -95.9252 	 
H 	 -63.1207 	 14.5082 	 -93.427 	 
