34

S 	 -100.375 	 37.8164 	 -81.2299 	 
C 	 -99.2048 	 36.6001 	 -80.9307 	 
C 	 -98.5893 	 36.2723 	 -82.1308 	 
C 	 -99.099 	 37.0339 	 -83.2323 	 
C 	 -100.087 	 37.9369 	 -82.9478 	 
H 	 -98.6632 	 36.8775 	 -84.2227 	 
C 	 -97.6128 	 35.1687 	 -82.2977 	 
H 	 -96.8162 	 35.2193 	 -81.55 	 
H 	 -97.0377 	 35.2336 	 -83.2461 	 
C 	 -98.2059 	 33.7075 	 -82.2645 	 
H 	 -98.4731 	 33.3818 	 -81.2954 	 
H 	 -99.1286 	 33.6731 	 -82.9276 	 
C 	 -97.0924 	 32.7115 	 -82.8093 	 
H 	 -96.7873 	 32.9919 	 -83.7988 	 
H 	 -96.2444 	 32.8431 	 -82.2074 	 
H 	 -97.3985 	 31.6204 	 -82.8515 	 
S 	 -100.411 	 40.7748 	 -83.1088 	 
C 	 -101.261 	 41.3897 	 -84.4622 	 
C 	 -101.272 	 40.5299 	 -85.5229 	 
C 	 -100.868 	 39.2284 	 -85.1511 	 
C 	 -100.465 	 39.1134 	 -83.8129 	 
H 	 -101.64 	 40.8885 	 -86.4691 	 
C 	 -100.833 	 38.1555 	 -86.1721 	 
H 	 -101.627 	 38.2849 	 -86.9352 	 
H 	 -100.981 	 37.1448 	 -85.7572 	 
C 	 -99.4913 	 38.1568 	 -86.9479 	 
H 	 -99.5591 	 37.4334 	 -87.754 	 
H 	 -98.7798 	 37.74 	 -86.2712 	 
C 	 -99.1351 	 39.5446 	 -87.5659 	 
H 	 -99.0644 	 40.289 	 -86.8437 	 
H 	 -99.7972 	 39.9 	 -88.3951 	 
H 	 -98.1475 	 39.4434 	 -88.0306 	 
H 	 -98.9043 	 36.2926 	 -79.9926 	 
H 	 -101.548 	 42.4275 	 -84.5612 	 
