34

S 	 -117.29 	 53.5156 	 -38.0065 	 
C 	 -117.591 	 52.5489 	 -39.4487 	 
C 	 -118.735 	 52.8703 	 -40.1832 	 
C 	 -119.394 	 53.9468 	 -39.557 	 
C 	 -118.682 	 54.501 	 -38.4801 	 
H 	 -120.349 	 54.3639 	 -39.8341 	 
C 	 -119.156 	 52.1622 	 -41.5021 	 
H 	 -119.896 	 51.4379 	 -40.9947 	 
H 	 -118.438 	 51.5212 	 -41.9382 	 
C 	 -119.927 	 53.0283 	 -42.5328 	 
H 	 -120.568 	 52.4031 	 -43.2068 	 
H 	 -120.624 	 53.7192 	 -42.0821 	 
C 	 -118.941 	 53.8221 	 -43.3937 	 
H 	 -119.065 	 54.8675 	 -43.0352 	 
H 	 -117.878 	 53.4877 	 -43.3593 	 
H 	 -119.323 	 53.7504 	 -44.3951 	 
S 	 -120.515 	 55.5313 	 -36.6526 	 
C 	 -120.309 	 57.1581 	 -36.1766 	 
C 	 -119.128 	 57.7773 	 -36.6364 	 
C 	 -118.443 	 56.8808 	 -37.5408 	 
C 	 -119.085 	 55.6779 	 -37.7147 	 
H 	 -118.819 	 58.7232 	 -36.2102 	 
C 	 -117.083 	 57.1628 	 -38.1038 	 
H 	 -117.019 	 58.2632 	 -38.1726 	 
H 	 -117.094 	 56.7307 	 -39.0961 	 
C 	 -115.824 	 56.7182 	 -37.3731 	 
H 	 -115.225 	 56.0346 	 -38.0225 	 
H 	 -116.151 	 56.0329 	 -36.5353 	 
C 	 -114.973 	 57.8176 	 -36.9396 	 
H 	 -115.525 	 58.6126 	 -36.5692 	 
H 	 -114.378 	 58.2196 	 -37.7571 	 
H 	 -114.315 	 57.3655 	 -36.2059 	 
H 	 -116.96 	 51.738 	 -39.7808 	 
H 	 -120.913 	 57.6752 	 -35.4917 	 
