34

S 	 -105.412 	 -0.26107 	 -113.441 	 
C 	 -106.62 	 0.826562 	 -114.057 	 
C 	 -107.823 	 0.16377 	 -114.152 	 
C 	 -107.81 	 -1.21734 	 -113.852 	 
C 	 -106.569 	 -1.61428 	 -113.389 	 
H 	 -108.59 	 -1.9685 	 -114.016 	 
C 	 -109.024 	 0.885551 	 -114.858 	 
H 	 -109.396 	 0.181523 	 -115.608 	 
H 	 -108.532 	 1.74854 	 -115.411 	 
C 	 -110.231 	 1.22506 	 -113.923 	 
H 	 -111.039 	 1.64606 	 -114.49 	 
H 	 -110.583 	 0.228087 	 -113.691 	 
C 	 -109.845 	 2.07498 	 -112.796 	 
H 	 -109.023 	 1.65826 	 -112.248 	 
H 	 -109.593 	 2.99345 	 -113.285 	 
H 	 -110.583 	 2.42113 	 -112.068 	 
S 	 -105.08 	 -3.7881 	 -113.845 	 
C 	 -105.149 	 -5.13737 	 -112.723 	 
C 	 -105.973 	 -4.87947 	 -111.65 	 
C 	 -106.648 	 -3.6265 	 -111.739 	 
C 	 -106.192 	 -2.94561 	 -112.892 	 
H 	 -106.18 	 -5.68392 	 -110.971 	 
C 	 -107.789 	 -3.27587 	 -110.824 	 
H 	 -107.569 	 -2.26406 	 -110.455 	 
H 	 -107.759 	 -3.97565 	 -109.977 	 
C 	 -109.283 	 -3.32918 	 -111.271 	 
H 	 -109.375 	 -2.73986 	 -112.184 	 
H 	 -109.897 	 -2.80537 	 -110.53 	 
C 	 -109.693 	 -4.75891 	 -111.668 	 
H 	 -110.789 	 -4.70324 	 -111.987 	 
H 	 -109.526 	 -5.50364 	 -110.846 	 
H 	 -109.25 	 -5.04056 	 -112.653 	 
H 	 -106.511 	 1.92319 	 -114.275 	 
H 	 -104.525 	 -5.99615 	 -112.935 	 
