34

S 	 -104.767 	 18.7149 	 -109.045 	 
C 	 -103.079 	 18.8406 	 -108.908 	 
C 	 -102.489 	 19.3134 	 -110.096 	 
C 	 -103.52 	 19.5534 	 -111.056 	 
C 	 -104.795 	 19.2251 	 -110.688 	 
H 	 -103.388 	 20.0213 	 -111.992 	 
C 	 -101.039 	 19.6192 	 -110.395 	 
H 	 -101.05 	 19.9956 	 -111.47 	 
H 	 -100.551 	 18.6728 	 -110.383 	 
C 	 -100.367 	 20.6571 	 -109.45 	 
H 	 -100.393 	 20.2336 	 -108.443 	 
H 	 -99.3161 	 20.6303 	 -109.617 	 
C 	 -100.952 	 22.0695 	 -109.308 	 
H 	 -100.672 	 22.8507 	 -110.064 	 
H 	 -102.05 	 22.156 	 -109.154 	 
H 	 -100.636 	 22.5596 	 -108.369 	 
S 	 -107.58 	 19.9624 	 -110.937 	 
C 	 -108.39 	 19.5946 	 -112.421 	 
C 	 -107.522 	 19.0185 	 -113.296 	 
C 	 -106.208 	 18.7746 	 -112.827 	 
C 	 -106.012 	 19.156 	 -111.485 	 
H 	 -108.003 	 18.8472 	 -114.256 	 
C 	 -105.155 	 17.9233 	 -113.638 	 
H 	 -105.371 	 16.9024 	 -113.481 	 
H 	 -104.146 	 18.0649 	 -113.185 	 
C 	 -105.064 	 18.1008 	 -115.123 	 
H 	 -106.073 	 18.0724 	 -115.624 	 
H 	 -104.454 	 17.3131 	 -115.553 	 
C 	 -104.28 	 19.3841 	 -115.492 	 
H 	 -104.809 	 20.2548 	 -115.059 	 
H 	 -104.265 	 19.5077 	 -116.546 	 
H 	 -103.27 	 19.2683 	 -115.162 	 
H 	 -102.618 	 18.4414 	 -108.068 	 
H 	 -109.355 	 20.0225 	 -112.724 	 
