34

S 	 -50.699 	 -3.88583 	 -17.4755 	 
C 	 -51.8643 	 -4.97396 	 -18.1344 	 
C 	 -52.7817 	 -4.28842 	 -18.9306 	 
C 	 -52.4898 	 -2.89374 	 -19.014 	 
C 	 -51.3486 	 -2.54225 	 -18.3204 	 
H 	 -53.0853 	 -2.1228 	 -19.4941 	 
C 	 -53.9681 	 -4.88576 	 -19.5309 	 
H 	 -54.6003 	 -5.27517 	 -18.7322 	 
H 	 -53.7468 	 -5.77019 	 -20.1427 	 
C 	 -54.9019 	 -3.9421 	 -20.311 	 
H 	 -55.2102 	 -3.07031 	 -19.7333 	 
H 	 -54.286 	 -3.35284 	 -21.0845 	 
C 	 -56.047 	 -4.65333 	 -20.9976 	 
H 	 -56.8658 	 -4.78188 	 -20.2796 	 
H 	 -56.5652 	 -3.97288 	 -21.6809 	 
H 	 -55.8749 	 -5.5353 	 -21.616 	 
S 	 -50.8024 	 -0.456254 	 -19.9623 	 
C 	 -50.1477 	 1.03215 	 -19.3481 	 
C 	 -49.9785 	 0.96184 	 -18.0125 	 
C 	 -50.2437 	 -0.327125 	 -17.517 	 
C 	 -50.7261 	 -1.24672 	 -18.4341 	 
H 	 -49.749 	 1.82439 	 -17.4169 	 
C 	 -50.288 	 -0.514973 	 -16.0007 	 
H 	 -49.2782 	 -0.564015 	 -15.4865 	 
H 	 -50.6909 	 -1.46542 	 -15.7674 	 
C 	 -51.2187 	 0.494886 	 -15.2927 	 
H 	 -52.2035 	 0.516034 	 -15.9339 	 
H 	 -50.7316 	 1.49085 	 -15.3537 	 
C 	 -51.6038 	 0.0497037 	 -13.8119 	 
H 	 -52.1168 	 -0.896457 	 -13.9071 	 
H 	 -52.2261 	 0.703872 	 -13.2258 	 
H 	 -50.7817 	 -0.222228 	 -13.1283 	 
H 	 -51.8138 	 -5.99066 	 -17.9327 	 
H 	 -50.0435 	 1.84792 	 -19.9971 	 
