34

S 	 15.1191 	 -16.9137 	 -119.529 	 
C 	 13.758 	 -16.486 	 -120.546 	 
C 	 12.5925 	 -16.3724 	 -119.828 	 
C 	 12.8024 	 -16.4538 	 -118.444 	 
C 	 14.1341 	 -16.6501 	 -118.111 	 
H 	 12.006 	 -16.425 	 -117.768 	 
C 	 11.175 	 -16.1754 	 -120.489 	 
H 	 10.5037 	 -16.2459 	 -119.644 	 
H 	 11.0441 	 -16.9871 	 -121.228 	 
C 	 11.1393 	 -14.8147 	 -121.231 	 
H 	 11.2194 	 -14.0128 	 -120.522 	 
H 	 11.9824 	 -14.6662 	 -121.833 	 
C 	 9.83618 	 -14.7056 	 -122.08 	 
H 	 9.83232 	 -15.2248 	 -123.011 	 
H 	 8.9341 	 -14.8785 	 -121.561 	 
H 	 9.8145 	 -13.6084 	 -122.392 	 
S 	 15.8782 	 -15.6527 	 -116.319 	 
C 	 15.935 	 -16.3607 	 -114.696 	 
C 	 14.9065 	 -17.216 	 -114.439 	 
C 	 14.1714 	 -17.4548 	 -115.656 	 
C 	 14.5864 	 -16.7373 	 -116.748 	 
H 	 14.6764 	 -17.6317 	 -113.484 	 
C 	 13.088 	 -18.5144 	 -115.654 	 
H 	 12.2476 	 -17.8565 	 -115.712 	 
H 	 13.0366 	 -19.0041 	 -114.703 	 
C 	 12.9713 	 -19.562 	 -116.795 	 
H 	 12.6668 	 -19.0885 	 -117.724 	 
H 	 12.134 	 -20.2269 	 -116.653 	 
C 	 14.2321 	 -20.4181 	 -117.038 	 
H 	 13.9914 	 -21.1622 	 -117.77 	 
H 	 14.5211 	 -20.8736 	 -116.113 	 
H 	 15.1201 	 -19.8281 	 -117.266 	 
H 	 13.7624 	 -16.357 	 -121.602 	 
H 	 16.4998 	 -16.0337 	 -113.832 	 
