34

S 	 -34.8651 	 -12.3194 	 16.8271 	 
C 	 -34.7997 	 -10.5693 	 17.1107 	 
C 	 -35.3361 	 -9.89826 	 16.0031 	 
C 	 -35.4117 	 -10.7087 	 14.9058 	 
C 	 -35.0031 	 -12.0548 	 15.109 	 
H 	 -35.7128 	 -10.4229 	 13.8881 	 
C 	 -35.4761 	 -8.37093 	 15.8814 	 
H 	 -34.8187 	 -8.15328 	 15.0095 	 
H 	 -35.1986 	 -7.77911 	 16.7646 	 
C 	 -36.8685 	 -7.84413 	 15.3023 	 
H 	 -36.5897 	 -6.88911 	 14.9183 	 
H 	 -37.3786 	 -8.44461 	 14.5232 	 
C 	 -38.0248 	 -7.65768 	 16.3477 	 
H 	 -38.196 	 -8.57512 	 16.9593 	 
H 	 -37.8073 	 -6.80056 	 16.9725 	 
H 	 -38.9764 	 -7.34349 	 15.8675 	 
S 	 -35.8266 	 -14.6363 	 14.5351 	 
C 	 -35.039 	 -15.4662 	 13.1608 	 
C 	 -34.2144 	 -14.6177 	 12.4078 	 
C 	 -34.0374 	 -13.3571 	 13.0552 	 
C 	 -34.7956 	 -13.1988 	 14.2347 	 
H 	 -33.7513 	 -14.937 	 11.4947 	 
C 	 -33.4101 	 -12.2138 	 12.356 	 
H 	 -34.0648 	 -11.341 	 12.1696 	 
H 	 -33.3742 	 -12.6158 	 11.3176 	 
C 	 -32.0299 	 -11.7218 	 12.8881 	 
H 	 -31.3006 	 -12.5305 	 12.8612 	 
H 	 -32.1542 	 -11.4794 	 13.9364 	 
C 	 -31.4136 	 -10.5702 	 12.0451 	 
H 	 -30.6076 	 -10.0407 	 12.4658 	 
H 	 -32.0565 	 -9.74089 	 11.8538 	 
H 	 -30.9534 	 -10.921 	 11.0639 	 
H 	 -34.6634 	 -10.0777 	 18.0627 	 
H 	 -35.2796 	 -16.4615 	 12.8064 	 
