34

S 	 -34.2351 	 0.322942 	 -0.0132251 	 
C 	 -34.8197 	 -1.15611 	 -0.822305 	 
C 	 -36.0488 	 -1.46181 	 -0.327372 	 
C 	 -36.6141 	 -0.467007 	 0.545207 	 
C 	 -35.7664 	 0.658296 	 0.778488 	 
H 	 -37.6375 	 -0.436436 	 1.04648 	 
C 	 -36.9333 	 -2.62746 	 -0.861366 	 
H 	 -37.9959 	 -2.38973 	 -1.01265 	 
H 	 -37.0426 	 -3.38435 	 -0.0866383 	 
C 	 -36.4515 	 -3.3009 	 -2.11206 	 
H 	 -36.3804 	 -2.65895 	 -3.06886 	 
H 	 -35.3488 	 -3.48745 	 -1.98264 	 
C 	 -37.2051 	 -4.60057 	 -2.48784 	 
H 	 -36.6623 	 -5.30652 	 -3.16318 	 
H 	 -37.3463 	 -5.16427 	 -1.63397 	 
H 	 -38.2523 	 -4.3693 	 -2.76007 	 
S 	 -36.104 	 3.48011 	 0.591322 	 
C 	 -36.6039 	 4.31341 	 2.00454 	 
C 	 -36.5898 	 3.45097 	 3.12887 	 
C 	 -36.2528 	 2.11824 	 2.80398 	 
C 	 -35.9444 	 1.9706 	 1.48303 	 
H 	 -36.7644 	 3.90167 	 4.11484 	 
C 	 -36.1429 	 1.0339 	 3.88067 	 
H 	 -35.931 	 0.0243868 	 3.4127 	 
H 	 -37.0667 	 1.06026 	 4.37031 	 
C 	 -35.0785 	 1.28772 	 4.87011 	 
H 	 -35.2345 	 0.542579 	 5.66844 	 
H 	 -35.3487 	 2.25989 	 5.31821 	 
C 	 -33.571 	 1.42553 	 4.53647 	 
H 	 -33.2802 	 0.570099 	 3.8722 	 
H 	 -32.984 	 1.64706 	 5.37585 	 
H 	 -33.2561 	 2.19385 	 3.80965 	 
H 	 -34.2356 	 -1.83328 	 -1.4187 	 
H 	 -36.8771 	 5.34461 	 2.09893 	 
