34

S 	 -138.821 	 7.10231 	 5.99843 	 
C 	 -140.269 	 7.02528 	 5.07034 	 
C 	 -141.337 	 7.53921 	 5.78695 	 
C 	 -141.038 	 7.92339 	 7.13037 	 
C 	 -139.728 	 7.61316 	 7.42963 	 
H 	 -141.718 	 8.32652 	 7.84858 	 
C 	 -142.749 	 7.5392 	 5.26472 	 
H 	 -142.535 	 7.73308 	 4.21856 	 
H 	 -143.382 	 8.2735 	 5.60667 	 
C 	 -143.453 	 6.18965 	 5.4782 	 
H 	 -143.632 	 6.06974 	 6.52005 	 
H 	 -144.418 	 6.33593 	 5.09153 	 
C 	 -142.722 	 4.89266 	 4.92853 	 
H 	 -141.787 	 4.67931 	 5.48821 	 
H 	 -143.385 	 4.04411 	 4.97013 	 
H 	 -142.35 	 5.03417 	 3.87608 	 
S 	 -137.518 	 8.36041 	 8.79037 	 
C 	 -137.373 	 8.14078 	 10.4675 	 
C 	 -138.452 	 7.43487 	 11.0346 	 
C 	 -139.454 	 7.19918 	 10.04 	 
C 	 -139.099 	 7.60145 	 8.76495 	 
H 	 -138.476 	 7.22216 	 12.1155 	 
C 	 -140.709 	 6.50365 	 10.3194 	 
H 	 -140.519 	 5.59053 	 10.8205 	 
H 	 -141.224 	 6.17522 	 9.40004 	 
C 	 -141.705 	 7.31114 	 11.2256 	 
H 	 -141.946 	 8.28242 	 10.7739 	 
H 	 -141.262 	 7.33256 	 12.2051 	 
C 	 -143.035 	 6.51233 	 11.3755 	 
H 	 -143.584 	 6.82073 	 12.274 	 
H 	 -142.819 	 5.47433 	 11.3434 	 
H 	 -143.598 	 6.73552 	 10.4861 	 
H 	 -140.305 	 6.75731 	 4.05971 	 
H 	 -136.441 	 8.44302 	 10.9192 	 
