34

S 	 -59.6691 	 8.2862 	 -11.2757 	 
C 	 -59.676 	 6.82459 	 -10.404 	 
C 	 -59.8597 	 5.73938 	 -11.187 	 
C 	 -60.0156 	 6.10866 	 -12.5654 	 
C 	 -59.8734 	 7.44548 	 -12.7775 	 
H 	 -60.2626 	 5.58856 	 -13.5312 	 
C 	 -59.9993 	 4.33745 	 -10.7601 	 
H 	 -59.3487 	 4.14173 	 -9.92321 	 
H 	 -59.6515 	 3.70901 	 -11.5527 	 
C 	 -61.3976 	 4.00911 	 -10.3394 	 
H 	 -61.7789 	 4.48931 	 -9.40151 	 
H 	 -62.1313 	 4.25327 	 -11.1656 	 
C 	 -61.52 	 2.53759 	 -10.1714 	 
H 	 -60.9131 	 1.96483 	 -10.8487 	 
H 	 -61.3457 	 2.29255 	 -9.12545 	 
H 	 -62.5022 	 2.1394 	 -10.351 	 
S 	 -61.517 	 9.06892 	 -14.2686 	 
C 	 -61.289 	 9.17564 	 -15.993 	 
C 	 -60.1221 	 8.60016 	 -16.378 	 
C 	 -59.4436 	 7.94945 	 -15.3142 	 
C 	 -60.1148 	 8.0577 	 -14.088 	 
H 	 -59.91 	 8.5098 	 -17.3716 	 
C 	 -58.1471 	 7.2179 	 -15.5954 	 
H 	 -57.9579 	 6.39239 	 -14.8515 	 
H 	 -57.4317 	 7.99683 	 -15.355 	 
C 	 -57.9266 	 6.46479 	 -16.8731 	 
H 	 -56.8228 	 6.28252 	 -16.6386 	 
H 	 -57.9489 	 7.1231 	 -17.7652 	 
C 	 -58.5184 	 5.06455 	 -17.064 	 
H 	 -59.571 	 5.04259 	 -17.4202 	 
H 	 -58.4301 	 4.42514 	 -16.2012 	 
H 	 -57.9293 	 4.48108 	 -17.7527 	 
H 	 -59.5579 	 6.64991 	 -9.31127 	 
H 	 -61.9283 	 9.75196 	 -16.672 	 
