34

S 	 -76.8675 	 9.44179 	 -112.512 	 
C 	 -77.8638 	 8.36778 	 -111.6 	 
C 	 -77.2421 	 7.94291 	 -110.398 	 
C 	 -76.0301 	 8.68141 	 -110.232 	 
C 	 -75.6524 	 9.548 	 -111.294 	 
H 	 -75.4559 	 8.66021 	 -109.243 	 
C 	 -77.8704 	 7.07671 	 -109.317 	 
H 	 -77.1173 	 6.29801 	 -109.225 	 
H 	 -78.6983 	 6.44816 	 -109.635 	 
C 	 -78.2463 	 7.75931 	 -107.965 	 
H 	 -78.8399 	 7.01153 	 -107.441 	 
H 	 -77.3869 	 8.02126 	 -107.322 	 
C 	 -79.0899 	 9.01974 	 -108.144 	 
H 	 -79.9039 	 8.89208 	 -108.832 	 
H 	 -79.3799 	 9.50921 	 -107.181 	 
H 	 -78.5582 	 9.75756 	 -108.723 	 
S 	 -73.434 	 10.1202 	 -112.854 	 
C 	 -72.209 	 11.1646 	 -112.316 	 
C 	 -72.3694 	 11.4272 	 -110.971 	 
C 	 -73.7152 	 11.0982 	 -110.52 	 
C 	 -74.3754 	 10.2574 	 -111.393 	 
H 	 -71.6456 	 12.0329 	 -110.496 	 
C 	 -74.195 	 11.6064 	 -109.198 	 
H 	 -73.2779 	 11.9759 	 -108.676 	 
H 	 -74.6775 	 10.8666 	 -108.477 	 
C 	 -75.2606 	 12.7242 	 -109.233 	 
H 	 -75.6916 	 12.706 	 -108.204 	 
H 	 -76.1148 	 12.5134 	 -109.903 	 
C 	 -74.6447 	 14.1266 	 -109.506 	 
H 	 -73.6637 	 14.0478 	 -110.084 	 
H 	 -74.3949 	 14.7162 	 -108.578 	 
H 	 -75.2915 	 14.6871 	 -110.123 	 
H 	 -78.7924 	 8.03313 	 -112.038 	 
H 	 -71.2334 	 11.4266 	 -112.761 	 
