34

S 	 41.0711 	 -17.8149 	 -107.278 	 
C 	 41.4643 	 -19.0143 	 -108.389 	 
C 	 41.4867 	 -20.3201 	 -107.911 	 
C 	 41.4294 	 -20.2807 	 -106.462 	 
C 	 41.1965 	 -19.0239 	 -106.002 	 
H 	 41.5542 	 -21.1094 	 -105.829 	 
C 	 41.5266 	 -21.5322 	 -108.839 	 
H 	 42.2378 	 -21.2489 	 -109.614 	 
H 	 40.6084 	 -21.6846 	 -109.383 	 
C 	 41.9547 	 -22.8971 	 -108.247 	 
H 	 42.4002 	 -23.5639 	 -109.016 	 
H 	 42.7261 	 -22.6869 	 -107.438 	 
C 	 40.8208 	 -23.5851 	 -107.512 	 
H 	 39.9599 	 -23.5214 	 -108.206 	 
H 	 41.0706 	 -24.6317 	 -107.236 	 
H 	 40.5333 	 -22.937 	 -106.697 	 
S 	 39.9697 	 -17.5313 	 -104.136 	 
C 	 40.5998 	 -17.4668 	 -102.535 	 
C 	 41.6928 	 -18.2832 	 -102.339 	 
C 	 42.0046 	 -19.0798 	 -103.492 	 
C 	 41.2932 	 -18.5933 	 -104.615 	 
H 	 42.205 	 -18.2629 	 -101.371 	 
C 	 43.1704 	 -20.0249 	 -103.494 	 
H 	 43.812 	 -19.7094 	 -102.642 	 
H 	 43.7487 	 -19.8035 	 -104.364 	 
C 	 42.8117 	 -21.4674 	 -103.337 	 
H 	 41.8184 	 -21.5612 	 -103.75 	 
H 	 42.8114 	 -21.6524 	 -102.26 	 
C 	 43.737 	 -22.5374 	 -103.951 	 
H 	 43.2994 	 -23.5901 	 -104.034 	 
H 	 44.7483 	 -22.5699 	 -103.504 	 
H 	 43.7011 	 -22.3671 	 -105.053 	 
H 	 41.6264 	 -18.821 	 -109.387 	 
H 	 40.2129 	 -16.9161 	 -101.748 	 
