34

S 	 -125.461 	 58.056 	 -53.8034 	 
C 	 -125.959 	 58.6249 	 -55.3873 	 
C 	 -125.744 	 59.9988 	 -55.5493 	 
C 	 -125.294 	 60.597 	 -54.3112 	 
C 	 -125.073 	 59.7049 	 -53.3093 	 
H 	 -125.172 	 61.6686 	 -54.104 	 
C 	 -126.101 	 60.8361 	 -56.7591 	 
H 	 -125.722 	 60.331 	 -57.6308 	 
H 	 -125.601 	 61.7539 	 -56.7625 	 
C 	 -127.66 	 61.1082 	 -56.9789 	 
H 	 -128.147 	 60.1256 	 -57.0081 	 
H 	 -128.106 	 61.7463 	 -56.229 	 
C 	 -128.048 	 61.7799 	 -58.3414 	 
H 	 -129.106 	 61.9125 	 -58.5203 	 
H 	 -127.529 	 62.7341 	 -58.3304 	 
H 	 -127.647 	 61.1383 	 -59.1673 	 
S 	 -125.839 	 60.9659 	 -51.1148 	 
C 	 -124.803 	 61.1102 	 -49.7235 	 
C 	 -123.569 	 60.5287 	 -49.9728 	 
C 	 -123.509 	 59.7949 	 -51.1878 	 
C 	 -124.643 	 59.9885 	 -51.9696 	 
H 	 -122.76 	 60.5154 	 -49.2586 	 
C 	 -122.249 	 59.1626 	 -51.7143 	 
H 	 -122.417 	 58.2346 	 -52.2804 	 
H 	 -121.552 	 58.8674 	 -50.8571 	 
C 	 -121.352 	 60.2691 	 -52.3739 	 
H 	 -121.142 	 61.0089 	 -51.6267 	 
H 	 -121.905 	 60.7414 	 -53.1624 	 
C 	 -119.932 	 59.856 	 -52.9657 	 
H 	 -119.907 	 59.262 	 -53.8704 	 
H 	 -119.399 	 59.2573 	 -52.2725 	 
H 	 -119.34 	 60.7865 	 -53.1587 	 
H 	 -126.393 	 58.0435 	 -56.1223 	 
H 	 -124.95 	 61.6665 	 -48.8641 	 
