34

S 	 -44.1557 	 15.7097 	 -103.702 	 
C 	 -44.3951 	 14.0088 	 -103.418 	 
C 	 -45.3511 	 13.7343 	 -102.468 	 
C 	 -45.8689 	 15.0192 	 -101.952 	 
C 	 -45.4429 	 16.149 	 -102.634 	 
H 	 -46.5895 	 15.1606 	 -101.201 	 
C 	 -45.7712 	 12.3253 	 -101.953 	 
H 	 -45.5999 	 11.587 	 -102.673 	 
H 	 -46.823 	 12.2772 	 -101.778 	 
C 	 -44.8474 	 11.7903 	 -100.817 	 
H 	 -44.8426 	 12.733 	 -100.158 	 
H 	 -45.2923 	 11.1161 	 -100.2 	 
C 	 -43.4118 	 11.3993 	 -101.177 	 
H 	 -43.5182 	 10.3113 	 -101.395 	 
H 	 -42.88 	 11.918 	 -101.998 	 
H 	 -42.8433 	 11.3783 	 -100.244 	 
S 	 -46.1503 	 17.9302 	 -100.775 	 
C 	 -47.288 	 19.1908 	 -101.135 	 
C 	 -47.3791 	 19.3956 	 -102.476 	 
C 	 -46.7074 	 18.4045 	 -103.243 	 
C 	 -46.0138 	 17.4713 	 -102.433 	 
H 	 -47.9497 	 20.2973 	 -102.836 	 
C 	 -46.8935 	 18.4569 	 -104.769 	 
H 	 -46.0169 	 17.9329 	 -105.25 	 
H 	 -47.0706 	 19.4735 	 -105.192 	 
C 	 -48.1224 	 17.6427 	 -105.096 	 
H 	 -48.9915 	 18.0255 	 -104.621 	 
H 	 -47.9099 	 16.6494 	 -104.753 	 
C 	 -48.5084 	 17.6119 	 -106.541 	 
H 	 -47.7209 	 17.6234 	 -107.256 	 
H 	 -49.007 	 18.5227 	 -106.842 	 
H 	 -49.1598 	 16.8209 	 -106.695 	 
H 	 -43.8296 	 13.2722 	 -103.903 	 
H 	 -47.6081 	 19.8328 	 -100.38 	 
