34

S 	 -55.8541 	 13.802 	 -91.82 	 
C 	 -54.6661 	 12.505 	 -91.7712 	 
C 	 -53.4064 	 12.9361 	 -92.1534 	 
C 	 -53.3325 	 14.358 	 -92.2024 	 
C 	 -54.5652 	 15.0148 	 -92.0207 	 
H 	 -52.4314 	 14.8703 	 -92.5751 	 
C 	 -52.16 	 12.144 	 -92.3963 	 
H 	 -52.0302 	 12.0426 	 -93.439 	 
H 	 -52.2447 	 11.1327 	 -91.9853 	 
C 	 -50.9346 	 12.6835 	 -91.8364 	 
H 	 -50.6985 	 13.5098 	 -92.5047 	 
H 	 -51.0875 	 13.2023 	 -90.9092 	 
C 	 -49.8432 	 11.6328 	 -91.6599 	 
H 	 -48.859 	 12.0815 	 -91.4418 	 
H 	 -50.1119 	 10.962 	 -90.8125 	 
H 	 -49.7326 	 10.9988 	 -92.4604 	 
S 	 -56.3546 	 16.7559 	 -93.0472 	 
C 	 -55.8676 	 18.4317 	 -93.2847 	 
C 	 -54.608 	 18.6799 	 -92.7348 	 
C 	 -53.9635 	 17.5196 	 -92.2531 	 
C 	 -54.861 	 16.4353 	 -92.2061 	 
H 	 -54.2639 	 19.6196 	 -92.7189 	 
C 	 -52.5777 	 17.6109 	 -91.6645 	 
H 	 -52.3277 	 16.7432 	 -91.086 	 
H 	 -52.5569 	 18.3896 	 -90.9052 	 
C 	 -51.4095 	 17.9598 	 -92.6043 	 
H 	 -51.5203 	 18.8903 	 -93.0894 	 
H 	 -51.4438 	 17.2168 	 -93.352 	 
C 	 -50.0007 	 18.0513 	 -91.963 	 
H 	 -49.21 	 18.4497 	 -92.7042 	 
H 	 -49.6967 	 17.0662 	 -91.6705 	 
H 	 -49.8373 	 18.7483 	 -91.2 	 
H 	 -54.8683 	 11.4439 	 -91.9031 	 
H 	 -56.5543 	 19.0798 	 -93.739 	 
