34

S 	 -51.097 	 -47.9193 	 -81.8462 	 
C 	 -50.3201 	 -49.2898 	 -81.1087 	 
C 	 -51.2231 	 -50.1791 	 -80.5795 	 
C 	 -52.5793 	 -49.6694 	 -80.5946 	 
C 	 -52.721 	 -48.4269 	 -81.1727 	 
H 	 -53.4523 	 -50.1571 	 -80.144 	 
C 	 -50.9185 	 -51.576 	 -80.1886 	 
H 	 -51.2351 	 -51.609 	 -79.055 	 
H 	 -49.9265 	 -51.7424 	 -80.189 	 
C 	 -51.5086 	 -52.6609 	 -81.1085 	 
H 	 -51.3462 	 -53.5848 	 -80.5674 	 
H 	 -52.6259 	 -52.607 	 -81.0881 	 
C 	 -50.8554 	 -52.5628 	 -82.517 	 
H 	 -49.8429 	 -52.5335 	 -82.5432 	 
H 	 -51.2029 	 -53.4183 	 -83.094 	 
H 	 -51.2509 	 -51.7067 	 -82.9691 	 
S 	 -54.8953 	 -47.1955 	 -79.8886 	 
C 	 -56.1764 	 -46.5287 	 -80.8478 	 
C 	 -56.072 	 -46.9597 	 -82.184 	 
C 	 -54.8263 	 -47.6265 	 -82.4093 	 
C 	 -54.0263 	 -47.7694 	 -81.2995 	 
H 	 -56.8881 	 -46.7927 	 -82.8477 	 
C 	 -54.41 	 -48.332 	 -83.6804 	 
H 	 -53.933 	 -49.299 	 -83.5758 	 
H 	 -53.5519 	 -47.7365 	 -83.992 	 
C 	 -55.556 	 -48.4745 	 -84.7189 	 
H 	 -56.0697 	 -47.5255 	 -84.9522 	 
H 	 -56.3898 	 -49.0144 	 -84.279 	 
C 	 -55.0452 	 -49.2845 	 -85.9983 	 
H 	 -54.3612 	 -48.7182 	 -86.6076 	 
H 	 -55.9398 	 -49.5663 	 -86.5898 	 
H 	 -54.7047 	 -50.277 	 -85.6598 	 
H 	 -49.3002 	 -49.5801 	 -81.2416 	 
H 	 -57.0411 	 -46.0822 	 -80.3937 	 
