34

S 	 -38.4464 	 -51.6701 	 -76.8029 	 
C 	 -36.8939 	 -52.3139 	 -77.5153 	 
C 	 -35.8091 	 -51.6317 	 -77.0016 	 
C 	 -36.2401 	 -50.6964 	 -76.002 	 
C 	 -37.6098 	 -50.6311 	 -75.7396 	 
H 	 -35.5851 	 -50.0354 	 -75.4912 	 
C 	 -34.3795 	 -51.8582 	 -77.5011 	 
H 	 -34.6656 	 -52.0545 	 -78.5287 	 
H 	 -34.014 	 -52.8396 	 -77.1903 	 
C 	 -33.3752 	 -50.7163 	 -77.412 	 
H 	 -32.5463 	 -50.8241 	 -78.1154 	 
H 	 -33.6874 	 -49.6991 	 -77.66 	 
C 	 -32.4739 	 -50.7022 	 -76.1852 	 
H 	 -33.0693 	 -50.6033 	 -75.2748 	 
H 	 -32.0439 	 -51.6654 	 -76.0146 	 
H 	 -31.6292 	 -50.0111 	 -76.2898 	 
S 	 -39.0315 	 -50.3469 	 -73.3758 	 
C 	 -39.1158 	 -48.701 	 -72.6685 	 
C 	 -38.4374 	 -47.7919 	 -73.4486 	 
C 	 -37.8259 	 -48.4032 	 -74.5939 	 
C 	 -38.1742 	 -49.6963 	 -74.7927 	 
H 	 -38.4019 	 -46.8028 	 -73.0551 	 
C 	 -36.8783 	 -47.6426 	 -75.5166 	 
H 	 -36.7602 	 -48.2822 	 -76.3704 	 
H 	 -35.9447 	 -47.7402 	 -74.9481 	 
C 	 -37.1179 	 -46.1003 	 -75.8507 	 
H 	 -37.1979 	 -45.4715 	 -74.9474 	 
H 	 -38.1155 	 -45.9541 	 -76.3816 	 
C 	 -36.0123 	 -45.5257 	 -76.6997 	 
H 	 -36.234 	 -44.4879 	 -76.9394 	 
H 	 -35.7825 	 -46.1004 	 -77.6201 	 
H 	 -35.0543 	 -45.4738 	 -76.1823 	 
H 	 -36.7576 	 -53.1108 	 -78.2851 	 
H 	 -39.779 	 -48.4776 	 -71.817 	 
