34

S 	 -91.1493 	 -34.0316 	 -63.9287 	 
C 	 -92.8482 	 -34.3741 	 -63.7441 	 
C 	 -93.4208 	 -33.9207 	 -64.9097 	 
C 	 -92.5721 	 -33.3433 	 -65.8665 	 
C 	 -91.196 	 -33.3319 	 -65.5281 	 
H 	 -92.8987 	 -32.9018 	 -66.7355 	 
C 	 -94.8713 	 -33.9497 	 -65.0808 	 
H 	 -95.1833 	 -33.0802 	 -65.7105 	 
H 	 -95.4638 	 -33.6421 	 -64.2223 	 
C 	 -95.3806 	 -35.3217 	 -65.6122 	 
H 	 -95.0979 	 -36.1971 	 -64.9263 	 
H 	 -96.394 	 -35.2588 	 -65.6278 	 
C 	 -94.8785 	 -35.5925 	 -67.0124 	 
H 	 -95.1873 	 -34.9048 	 -67.7845 	 
H 	 -93.8376 	 -35.7683 	 -66.8915 	 
H 	 -95.4775 	 -36.4826 	 -67.3001 	 
S 	 -89.2814 	 -31.4653 	 -65.0816 	 
C 	 -87.8452 	 -31.4528 	 -66.0888 	 
C 	 -88.0412 	 -32.2492 	 -67.233 	 
C 	 -89.3144 	 -32.9242 	 -67.2311 	 
C 	 -90.0356 	 -32.6684 	 -66.0741 	 
H 	 -87.2076 	 -32.3245 	 -67.9288 	 
C 	 -89.6776 	 -34.1229 	 -68.1479 	 
H 	 -90.656 	 -34.452 	 -67.7202 	 
H 	 -88.9128 	 -34.8813 	 -67.9078 	 
C 	 -89.6271 	 -33.8677 	 -69.6534 	 
H 	 -88.6213 	 -33.5396 	 -70.0097 	 
H 	 -90.2351 	 -33.0277 	 -69.8776 	 
C 	 -90.1731 	 -35.081 	 -70.4472 	 
H 	 -91.2395 	 -35.4088 	 -70.2248 	 
H 	 -89.6206 	 -35.9374 	 -70.0767 	 
H 	 -90.0963 	 -35.0396 	 -71.4821 	 
H 	 -93.303 	 -34.7776 	 -62.817 	 
H 	 -86.9106 	 -30.9419 	 -65.883 	 
