34

S 	 -68.8298 	 -53.3124 	 -83.5684 	 
C 	 -69.9438 	 -54.0066 	 -84.8162 	 
C 	 -70.2998 	 -55.3465 	 -84.5933 	 
C 	 -70.0055 	 -55.6337 	 -83.2217 	 
C 	 -69.1763 	 -54.7054 	 -82.5747 	 
H 	 -70.1779 	 -56.5918 	 -82.6685 	 
C 	 -71.0587 	 -56.2633 	 -85.5646 	 
H 	 -71.1216 	 -55.7547 	 -86.5564 	 
H 	 -72.0966 	 -56.444 	 -85.323 	 
C 	 -70.4407 	 -57.6917 	 -85.8167 	 
H 	 -71.0763 	 -58.1899 	 -86.5519 	 
H 	 -69.3939 	 -57.5989 	 -86.1519 	 
C 	 -70.2672 	 -58.506 	 -84.5087 	 
H 	 -69.423 	 -58.2017 	 -83.8668 	 
H 	 -71.2177 	 -58.5565 	 -83.9678 	 
H 	 -70.0704 	 -59.5043 	 -84.8618 	 
S 	 -69.1798 	 -53.7187 	 -79.987 	 
C 	 -68.2207 	 -54.5173 	 -78.7098 	 
C 	 -67.6488 	 -55.6624 	 -79.1903 	 
C 	 -67.7983 	 -55.8252 	 -80.6166 	 
C 	 -68.6631 	 -54.8541 	 -81.1855 	 
H 	 -67.0014 	 -56.2391 	 -78.4822 	 
C 	 -66.9149 	 -56.8062 	 -81.3457 	 
H 	 -67.5396 	 -57.2395 	 -82.2191 	 
H 	 -66.7279 	 -57.5952 	 -80.6917 	 
C 	 -65.6201 	 -56.1533 	 -81.7574 	 
H 	 -65.8152 	 -55.0315 	 -81.8427 	 
H 	 -65.3869 	 -56.5207 	 -82.7006 	 
C 	 -64.4494 	 -56.4046 	 -80.8379 	 
H 	 -64.4236 	 -55.9351 	 -79.8902 	 
H 	 -63.5768 	 -55.901 	 -81.2012 	 
H 	 -64.3339 	 -57.4884 	 -80.709 	 
H 	 -70.0184 	 -53.6019 	 -85.8376 	 
H 	 -68.2926 	 -54.4239 	 -77.6443 	 
