34

S 	 -78.8036 	 -16.4921 	 -53.9611 	 
C 	 -80.0273 	 -16.0398 	 -52.7299 	 
C 	 -81.2251 	 -16.6499 	 -53.0235 	 
C 	 -81.2042 	 -17.4548 	 -54.172 	 
C 	 -79.9161 	 -17.5839 	 -54.7175 	 
H 	 -82.0508 	 -18.0581 	 -54.6148 	 
C 	 -82.4218 	 -16.4891 	 -52.1469 	 
H 	 -82.0408 	 -16.3122 	 -51.0896 	 
H 	 -82.8708 	 -17.4925 	 -52.2552 	 
C 	 -83.4034 	 -15.4328 	 -52.6238 	 
H 	 -82.7832 	 -14.5155 	 -52.7194 	 
H 	 -83.8451 	 -15.7971 	 -53.5408 	 
C 	 -84.607 	 -15.2041 	 -51.5763 	 
H 	 -85.0272 	 -14.1925 	 -51.8772 	 
H 	 -85.3333 	 -16.0187 	 -51.4955 	 
H 	 -84.041 	 -15.1338 	 -50.5889 	 
S 	 -80.344 	 -20.1699 	 -55.6145 	 
C 	 -79.5933 	 -20.7381 	 -57.0371 	 
C 	 -78.7147 	 -19.8369 	 -57.4678 	 
C 	 -78.6174 	 -18.5963 	 -56.7302 	 
C 	 -79.5265 	 -18.6045 	 -55.6633 	 
H 	 -78.2632 	 -19.9708 	 -58.3771 	 
C 	 -77.7398 	 -17.3877 	 -57.2063 	 
H 	 -76.8281 	 -17.6808 	 -57.695 	 
H 	 -77.2669 	 -16.8703 	 -56.3315 	 
C 	 -78.4759 	 -16.3137 	 -58.0117 	 
H 	 -79.0746 	 -16.7626 	 -58.8518 	 
H 	 -77.7678 	 -15.598 	 -58.4339 	 
C 	 -79.4646 	 -15.4269 	 -57.2669 	 
H 	 -80.4286 	 -16.0022 	 -56.9929 	 
H 	 -79.8477 	 -14.6351 	 -57.9204 	 
H 	 -78.8874 	 -14.9102 	 -56.512 	 
H 	 -79.803 	 -15.3462 	 -51.8932 	 
H 	 -79.6845 	 -21.7526 	 -57.4658 	 
