34

S 	 34.8348 	 -29.3738 	 -117.168 	 
C 	 35.5102 	 -28.6673 	 -115.702 	 
C 	 36.7364 	 -29.1396 	 -115.412 	 
C 	 37.1624 	 -30.15 	 -116.343 	 
C 	 36.2259 	 -30.3952 	 -117.331 	 
H 	 38.0404 	 -30.7398 	 -116.308 	 
C 	 37.6533 	 -28.657 	 -114.223 	 
H 	 36.9434 	 -28.1166 	 -113.598 	 
H 	 38.5071 	 -27.9897 	 -114.611 	 
C 	 38.3106 	 -29.7755 	 -113.317 	 
H 	 39.1982 	 -30.0639 	 -113.826 	 
H 	 38.5434 	 -29.2001 	 -112.412 	 
C 	 37.3031 	 -30.871 	 -112.943 	 
H 	 38.0307 	 -31.6242 	 -112.476 	 
H 	 36.6144 	 -30.5017 	 -112.23 	 
H 	 36.7719 	 -31.3665 	 -113.827 	 
S 	 35.838 	 -31.0135 	 -120.019 	 
C 	 36.1499 	 -32.6314 	 -120.548 	 
C 	 36.5128 	 -33.4826 	 -119.501 	 
C 	 36.6792 	 -32.7716 	 -118.255 	 
C 	 36.2888 	 -31.4001 	 -118.361 	 
H 	 36.652 	 -34.4915 	 -119.691 	 
C 	 37.0305 	 -33.5509 	 -116.952 	 
H 	 37.8403 	 -33.0351 	 -116.466 	 
H 	 37.4747 	 -34.4584 	 -117.352 	 
C 	 35.9006 	 -33.9252 	 -115.977 	 
H 	 35.1625 	 -34.3841 	 -116.593 	 
H 	 35.5109 	 -33.0613 	 -115.492 	 
C 	 36.425 	 -34.9911 	 -114.98 	 
H 	 36.5149 	 -35.9138 	 -115.581 	 
H 	 35.7063 	 -35.1784 	 -114.256 	 
H 	 37.4087 	 -34.7432 	 -114.577 	 
H 	 35.0942 	 -27.7586 	 -115.299 	 
H 	 35.727 	 -33.0347 	 -121.424 	 
