34

S 	 -38.979 	 19.3844 	 -96.0101 	 
C 	 -37.7866 	 18.2922 	 -96.6093 	 
C 	 -38.0091 	 16.9756 	 -96.1806 	 
C 	 -39.1388 	 16.9383 	 -95.2786 	 
C 	 -39.8059 	 18.1449 	 -95.0716 	 
H 	 -39.4901 	 16.0793 	 -94.7312 	 
C 	 -37.1909 	 15.7566 	 -96.5795 	 
H 	 -37.4666 	 14.9016 	 -95.9311 	 
H 	 -36.1771 	 15.9735 	 -96.4644 	 
C 	 -37.3251 	 15.2234 	 -98.0165 	 
H 	 -36.8496 	 15.885 	 -98.7587 	 
H 	 -36.8606 	 14.2075 	 -98.0582 	 
C 	 -38.8695 	 15.1838 	 -98.5161 	 
H 	 -39.2611 	 16.2038 	 -98.7895 	 
H 	 -38.9699 	 14.5144 	 -99.388 	 
H 	 -39.4806 	 14.7078 	 -97.7846 	 
S 	 -41.168 	 19.8739 	 -93.303 	 
C 	 -42.7611 	 19.5543 	 -92.8296 	 
C 	 -43.1804 	 18.3762 	 -93.4205 	 
C 	 -42.2638 	 17.7361 	 -94.3157 	 
C 	 -41.0383 	 18.4172 	 -94.3503 	 
H 	 -44.1335 	 18.0479 	 -93.2503 	 
C 	 -42.5823 	 16.4775 	 -95.0354 	 
H 	 -42.8918 	 15.7063 	 -94.3405 	 
H 	 -41.6957 	 16.2194 	 -95.6774 	 
C 	 -43.7591 	 16.674 	 -96.0207 	 
H 	 -43.4837 	 17.4207 	 -96.7455 	 
H 	 -44.6165 	 16.9657 	 -95.5149 	 
C 	 -43.9394 	 15.3099 	 -96.7841 	 
H 	 -43.0549 	 15.1317 	 -97.3089 	 
H 	 -44.5688 	 15.3562 	 -97.6802 	 
H 	 -44.0928 	 14.4614 	 -96.1241 	 
H 	 -36.9076 	 18.4995 	 -97.1705 	 
H 	 -43.379 	 20.1712 	 -92.1907 	 
