34

S 	 -51.2017 	 -3.96707 	 22.0429 	 
C 	 -52.3907 	 -4.21554 	 20.7837 	 
C 	 -51.8074 	 -4.71807 	 19.638 	 
C 	 -50.4056 	 -4.98281 	 19.8645 	 
C 	 -49.8981 	 -4.6518 	 21.0885 	 
H 	 -49.7705 	 -5.42193 	 19.1673 	 
C 	 -52.4866 	 -5.00796 	 18.3274 	 
H 	 -52.2075 	 -4.13556 	 17.7349 	 
H 	 -53.5399 	 -4.99314 	 18.3162 	 
C 	 -52.0515 	 -6.2849 	 17.5313 	 
H 	 -51.0074 	 -6.04244 	 17.4446 	 
H 	 -52.2817 	 -7.0812 	 18.1403 	 
C 	 -52.8835 	 -6.51751 	 16.2489 	 
H 	 -52.5456 	 -7.45808 	 15.8319 	 
H 	 -53.9204 	 -6.81031 	 16.3642 	 
H 	 -52.8521 	 -5.76063 	 15.5276 	 
S 	 -48.2988 	 -6.34117 	 22.3652 	 
C 	 -46.5843 	 -5.9069 	 22.5166 	 
C 	 -46.4284 	 -4.53131 	 22.4317 	 
C 	 -47.5364 	 -3.97533 	 21.7651 	 
C 	 -48.6371 	 -4.82442 	 21.7136 	 
H 	 -45.4571 	 -4.08902 	 22.5814 	 
C 	 -47.3911 	 -2.59264 	 21.1712 	 
H 	 -47.5708 	 -1.82599 	 21.9279 	 
H 	 -48.2255 	 -2.38794 	 20.5595 	 
C 	 -46.022 	 -2.16518 	 20.3312 	 
H 	 -45.0712 	 -2.18415 	 20.9824 	 
H 	 -46.0992 	 -1.24965 	 19.9059 	 
C 	 -45.8453 	 -3.2261 	 19.2028 	 
H 	 -44.965 	 -3.10082 	 18.4745 	 
H 	 -46.7281 	 -3.16101 	 18.5139 	 
H 	 -45.8658 	 -4.23296 	 19.6115 	 
H 	 -53.4131 	 -3.90474 	 20.8252 	 
H 	 -45.7781 	 -6.48389 	 23.0026 	 
