34

S 	 -92.3214 	 52.5997 	 -98.0015 	 
C 	 -91.2624 	 52.5577 	 -96.6039 	 
C 	 -90.1571 	 51.7913 	 -96.9227 	 
C 	 -90.226 	 51.1239 	 -98.1641 	 
C 	 -91.3558 	 51.5065 	 -98.8769 	 
H 	 -89.4363 	 50.459 	 -98.5854 	 
C 	 -89.0324 	 51.4577 	 -95.9489 	 
H 	 -88.7509 	 52.314 	 -95.3196 	 
H 	 -88.1374 	 51.3988 	 -96.607 	 
C 	 -89.1845 	 50.2362 	 -95.0815 	 
H 	 -89.9585 	 50.2393 	 -94.342 	 
H 	 -89.5253 	 49.4833 	 -95.7233 	 
C 	 -87.9398 	 49.7572 	 -94.3818 	 
H 	 -87.1163 	 49.5971 	 -94.983 	 
H 	 -87.7148 	 50.2979 	 -93.4529 	 
H 	 -88.2275 	 48.8093 	 -93.8734 	 
S 	 -91.0495 	 51.2094 	 -101.502 	 
C 	 -92.0086 	 50.0737 	 -102.372 	 
C 	 -93.0374 	 49.5537 	 -101.658 	 
C 	 -92.8485 	 50.0044 	 -100.271 	 
C 	 -91.8337 	 50.9321 	 -100.064 	 
H 	 -93.5998 	 48.7201 	 -102.073 	 
C 	 -93.7096 	 49.3987 	 -99.1727 	 
H 	 -93.1775 	 49.2692 	 -98.2583 	 
H 	 -93.7867 	 48.391 	 -99.4655 	 
C 	 -95.0516 	 49.9698 	 -98.9661 	 
H 	 -95.512 	 50.0734 	 -99.9496 	 
H 	 -94.8361 	 50.9599 	 -98.5764 	 
C 	 -95.8667 	 48.9986 	 -98.1292 	 
H 	 -95.3931 	 48.8525 	 -97.2116 	 
H 	 -95.9939 	 47.9647 	 -98.5859 	 
H 	 -96.8311 	 49.3762 	 -97.9258 	 
H 	 -91.5064 	 53.0257 	 -95.649 	 
H 	 -91.7739 	 49.7972 	 -103.402 	 
