34

S 	 -136.397 	 11.3211 	 -2.59099 	 
C 	 -135.952 	 9.79933 	 -1.84352 	 
C 	 -134.759 	 9.86114 	 -1.07713 	 
C 	 -134.157 	 11.143 	 -1.23858 	 
C 	 -134.831 	 11.9897 	 -2.12629 	 
H 	 -133.234 	 11.4372 	 -0.774884 	 
C 	 -134.304 	 8.87709 	 -0.0834376 	 
H 	 -134.736 	 9.22983 	 0.843186 	 
H 	 -133.259 	 9.04594 	 0.0138798 	 
C 	 -134.54 	 7.37305 	 -0.433487 	 
H 	 -135.519 	 7.14708 	 -0.905014 	 
H 	 -133.679 	 7.26171 	 -1.20338 	 
C 	 -134.149 	 6.51874 	 0.843109 	 
H 	 -133.096 	 6.62896 	 1.25471 	 
H 	 -134.874 	 6.81224 	 1.61389 	 
H 	 -134.404 	 5.43919 	 0.713955 	 
S 	 -135.741 	 14.5988 	 -2.48392 	 
C 	 -134.557 	 15.7409 	 -3.09153 	 
C 	 -133.275 	 15.2483 	 -3.20251 	 
C 	 -133.202 	 13.8703 	 -2.89482 	 
C 	 -134.444 	 13.3468 	 -2.49214 	 
H 	 -132.365 	 15.8407 	 -3.52045 	 
C 	 -131.947 	 12.972 	 -2.99622 	 
H 	 -132.189 	 12.1724 	 -3.75538 	 
H 	 -131.699 	 12.5266 	 -1.97409 	 
C 	 -130.673 	 13.7536 	 -3.46553 	 
H 	 -130.484 	 14.658 	 -2.82887 	 
H 	 -130.797 	 14.1244 	 -4.45543 	 
C 	 -129.414 	 12.8903 	 -3.38066 	 
H 	 -129.105 	 12.9414 	 -2.31964 	 
H 	 -128.59 	 13.3484 	 -3.92837 	 
H 	 -129.577 	 11.9351 	 -3.92017 	 
H 	 -136.55 	 8.8619 	 -1.8991 	 
H 	 -134.817 	 16.7963 	 -3.36404 	 
