34

S 	 -44.6278 	 9.32914 	 25.6225 	 
C 	 -43.6046 	 10.5794 	 25.1544 	 
C 	 -44.1704 	 11.7837 	 24.8043 	 
C 	 -45.5813 	 11.7135 	 25.0757 	 
C 	 -45.9939 	 10.5187 	 25.6648 	 
H 	 -46.2388 	 12.5062 	 24.8986 	 
C 	 -43.4632 	 13.0025 	 24.2818 	 
H 	 -42.4538 	 13.0201 	 24.808 	 
H 	 -44.0595 	 13.8876 	 24.5633 	 
C 	 -43.2324 	 13.0587 	 22.7687 	 
H 	 -44.2134 	 12.9622 	 22.2614 	 
H 	 -42.7178 	 14.0327 	 22.6717 	 
C 	 -42.3376 	 11.9502 	 22.2154 	 
H 	 -42.6625 	 10.9799 	 22.5631 	 
H 	 -42.3073 	 11.7959 	 21.1016 	 
H 	 -41.1993 	 12.2289 	 22.4767 	 
S 	 -47.7482 	 8.39787 	 26.1055 	 
C 	 -49.2751 	 8.72503 	 26.8532 	 
C 	 -49.3903 	 9.99583 	 27.2752 	 
C 	 -48.3591 	 10.7785 	 26.7533 	 
C 	 -47.2732 	 10.0664 	 26.1799 	 
H 	 -50.2455 	 10.266 	 27.9051 	 
C 	 -48.2084 	 12.2437 	 27.122 	 
H 	 -49.1517 	 12.6261 	 27.1618 	 
H 	 -47.8737 	 12.7766 	 26.2781 	 
C 	 -47.3717 	 12.7032 	 28.412 	 
H 	 -47.3533 	 13.7545 	 28.5937 	 
H 	 -46.3735 	 12.3479 	 28.199 	 
C 	 -47.7783 	 12.0162 	 29.7503 	 
H 	 -47.0826 	 12.254 	 30.5448 	 
H 	 -47.7348 	 10.9514 	 29.7492 	 
H 	 -48.8007 	 12.2313 	 30.0161 	 
H 	 -42.6031 	 10.3993 	 24.9343 	 
H 	 -49.9339 	 7.82532 	 27.1264 	 
