34

S 	 49.6997 	 -25.205 	 -117.095 	 
C 	 48.3887 	 -25.8056 	 -116.181 	 
C 	 48.084 	 -25.0029 	 -115.099 	 
C 	 48.9643 	 -23.8682 	 -114.995 	 
C 	 50.081 	 -23.9021 	 -115.897 	 
H 	 48.8857 	 -23.0856 	 -114.247 	 
C 	 47.0196 	 -25.301 	 -114.117 	 
H 	 47.2147 	 -24.5989 	 -113.324 	 
H 	 47.4116 	 -26.2194 	 -113.727 	 
C 	 45.6188 	 -25.2952 	 -114.547 	 
H 	 45.4162 	 -26.1928 	 -115.16 	 
H 	 45.0124 	 -25.3451 	 -113.648 	 
C 	 45.2448 	 -23.9576 	 -115.325 	 
H 	 44.1559 	 -24.0214 	 -115.475 	 
H 	 45.4776 	 -23.0351 	 -114.851 	 
H 	 45.7304 	 -23.9063 	 -116.283 	 
S 	 51.1922 	 -21.9817 	 -117.357 	 
C 	 52.5432 	 -21.1325 	 -116.704 	 
C 	 52.9654 	 -21.5583 	 -115.454 	 
C 	 52.0419 	 -22.5738 	 -114.938 	 
C 	 51.1589 	 -22.9229 	 -115.908 	 
H 	 53.8018 	 -21.0823 	 -114.921 	 
C 	 52.3297 	 -23.2749 	 -113.606 	 
H 	 53.4269 	 -23.3363 	 -113.508 	 
H 	 51.9413 	 -24.229 	 -113.844 	 
C 	 51.9046 	 -22.7312 	 -112.287 	 
H 	 50.805 	 -22.5156 	 -112.239 	 
H 	 52.3711 	 -21.7763 	 -112.095 	 
C 	 52.2563 	 -23.7268 	 -111.136 	 
H 	 51.9616 	 -23.1782 	 -110.245 	 
H 	 53.3674 	 -23.9898 	 -111.018 	 
H 	 51.7088 	 -24.6628 	 -111.258 	 
H 	 47.7138 	 -26.6498 	 -116.449 	 
H 	 52.9732 	 -20.2759 	 -117.261 	 
