34

S 	 33.2474 	 -31.3516 	 -131.346 	 
C 	 34.051 	 -30.3126 	 -130.203 	 
C 	 34.8631 	 -31.0904 	 -129.459 	 
C 	 34.929 	 -32.4573 	 -129.826 	 
C 	 33.9931 	 -32.746 	 -130.801 	 
H 	 35.5327 	 -33.2415 	 -129.363 	 
C 	 35.8362 	 -30.5492 	 -128.388 	 
H 	 35.6546 	 -31.2885 	 -127.568 	 
H 	 35.4503 	 -29.6071 	 -128.023 	 
C 	 37.2984 	 -30.5867 	 -128.846 	 
H 	 37.9627 	 -30.2156 	 -128.125 	 
H 	 37.5191 	 -31.6309 	 -129.05 	 
C 	 37.5345 	 -29.7787 	 -130.086 	 
H 	 38.6647 	 -29.7757 	 -130.152 	 
H 	 37.2048 	 -30.217 	 -130.983 	 
H 	 37.2051 	 -28.7446 	 -130.014 	 
S 	 34.229 	 -34.7346 	 -132.689 	 
C 	 33.4063 	 -36.2248 	 -132.42 	 
C 	 32.7367 	 -36.2396 	 -131.229 	 
C 	 32.8533 	 -35.0152 	 -130.51 	 
C 	 33.5329 	 -34.0156 	 -131.22 	 
H 	 32.1749 	 -37.1308 	 -130.868 	 
C 	 32.3455 	 -34.9292 	 -129.079 	 
H 	 31.521 	 -35.5802 	 -128.811 	 
H 	 31.9501 	 -33.9462 	 -129.02 	 
C 	 33.3276 	 -35.0972 	 -127.974 	 
H 	 32.7295 	 -35.2412 	 -127.094 	 
H 	 33.7737 	 -34.1427 	 -127.949 	 
C 	 34.2632 	 -36.2255 	 -128.003 	 
H 	 35.0825 	 -36.0473 	 -127.33 	 
H 	 34.862 	 -36.3922 	 -128.948 	 
H 	 33.7751 	 -37.179 	 -127.801 	 
H 	 33.9873 	 -29.2712 	 -130.175 	 
H 	 33.5119 	 -37.1177 	 -133.093 	 
