34

S 	 -90.6501 	 8.13922 	 0.370899 	 
C 	 -89.1763 	 7.75715 	 -0.514827 	 
C 	 -88.8433 	 6.45453 	 -0.339285 	 
C 	 -89.8993 	 5.63654 	 0.166212 	 
C 	 -90.8773 	 6.3775 	 0.732073 	 
H 	 -89.8417 	 4.53837 	 0.0892538 	 
C 	 -87.4378 	 5.85958 	 -0.743574 	 
H 	 -86.884 	 5.45158 	 0.10646 	 
H 	 -86.7738 	 6.65084 	 -1.02907 	 
C 	 -87.4356 	 4.85314 	 -1.87858 	 
H 	 -88.1397 	 4.03545 	 -1.71716 	 
H 	 -87.844 	 5.33236 	 -2.75283 	 
C 	 -86.0687 	 4.14342 	 -2.11435 	 
H 	 -85.2819 	 4.85368 	 -2.00178 	 
H 	 -85.9187 	 3.28208 	 -1.44876 	 
H 	 -86.0756 	 3.77999 	 -3.15421 	 
S 	 -93.5639 	 5.9347 	 0.500184 	 
C 	 -94.4999 	 5.62949 	 1.90871 	 
C 	 -93.7129 	 5.17555 	 2.92619 	 
C 	 -92.2994 	 5.3808 	 2.66682 	 
C 	 -92.0936 	 5.87987 	 1.39705 	 
H 	 -94.0732 	 4.99233 	 3.86194 	 
C 	 -91.2137 	 5.02609 	 3.71839 	 
H 	 -91.4963 	 5.47744 	 4.68324 	 
H 	 -90.2809 	 5.51402 	 3.40906 	 
C 	 -91.0994 	 3.481 	 3.99217 	 
H 	 -92.0468 	 3.07486 	 4.28847 	 
H 	 -90.4864 	 3.36119 	 4.85867 	 
C 	 -90.3876 	 2.74498 	 2.86293 	 
H 	 -90.8972 	 2.69676 	 1.89799 	 
H 	 -90.3095 	 1.67844 	 3.27202 	 
H 	 -89.3597 	 3.05255 	 2.78147 	 
H 	 -88.4547 	 8.46802 	 -0.958522 	 
H 	 -95.5221 	 5.78806 	 1.97458 	 
