34

S 	 -38.6096 	 -7.85286 	 11.4719 	 
C 	 -37.3685 	 -7.3784 	 12.5445 	 
C 	 -37.5131 	 -6.04869 	 12.9164 	 
C 	 -38.797 	 -5.56084 	 12.5687 	 
C 	 -39.4837 	 -6.36799 	 11.6718 	 
H 	 -39.1696 	 -4.51733 	 12.739 	 
C 	 -36.5259 	 -5.23957 	 13.7426 	 
H 	 -36.0668 	 -5.9547 	 14.3509 	 
H 	 -37.0267 	 -4.50543 	 14.3881 	 
C 	 -35.3394 	 -4.66462 	 12.9971 	 
H 	 -34.5407 	 -4.26119 	 13.6256 	 
H 	 -34.9153 	 -5.45803 	 12.3725 	 
C 	 -35.7121 	 -3.45121 	 12.1269 	 
H 	 -36.3314 	 -3.64295 	 11.2662 	 
H 	 -36.2188 	 -2.72097 	 12.7659 	 
H 	 -34.794 	 -2.96896 	 11.796 	 
S 	 -41.8969 	 -7.31896 	 10.8535 	 
C 	 -42.9905 	 -6.21652 	 9.94602 	 
C 	 -42.3494 	 -5.01729 	 9.60666 	 
C 	 -41.0002 	 -4.97454 	 10.1416 	 
C 	 -40.6935 	 -6.04964 	 10.9434 	 
H 	 -42.5979 	 -4.26405 	 8.83028 	 
C 	 -40.0089 	 -3.92298 	 9.75339 	 
H 	 -39.1949 	 -3.86991 	 10.4665 	 
H 	 -40.4977 	 -3.00832 	 9.95687 	 
C 	 -39.5899 	 -4.10006 	 8.25051 	 
H 	 -40.4006 	 -4.10519 	 7.44638 	 
H 	 -39.0071 	 -4.9716 	 8.10547 	 
C 	 -38.6779 	 -2.98311 	 7.76324 	 
H 	 -38.712 	 -2.77052 	 6.66353 	 
H 	 -37.6405 	 -3.23949 	 8.08698 	 
H 	 -39.0447 	 -2.05857 	 8.26722 	 
H 	 -36.5292 	 -8.0174 	 12.617 	 
H 	 -43.8553 	 -6.49611 	 9.43257 	 
