34

S 	 -131.785 	 16.4002 	 -17.4722 	 
C 	 -131.24 	 14.7481 	 -17.1918 	 
C 	 -132.023 	 13.7998 	 -17.7643 	 
C 	 -133.261 	 14.4322 	 -18.218 	 
C 	 -133.232 	 15.8013 	 -18.2583 	 
H 	 -134.111 	 13.9109 	 -18.5739 	 
C 	 -131.722 	 12.3095 	 -17.7592 	 
H 	 -130.608 	 12.2329 	 -17.8126 	 
H 	 -132.008 	 11.9065 	 -18.6555 	 
C 	 -132.218 	 11.4012 	 -16.6097 	 
H 	 -131.822 	 10.3992 	 -16.7993 	 
H 	 -131.696 	 11.6664 	 -15.7537 	 
C 	 -133.786 	 11.2871 	 -16.4776 	 
H 	 -134.056 	 10.6673 	 -15.5622 	 
H 	 -134.21 	 12.2543 	 -16.5031 	 
H 	 -133.98 	 10.6463 	 -17.3493 	 
S 	 -134.87 	 18.0453 	 -17.7094 	 
C 	 -135.942 	 18.5992 	 -18.913 	 
C 	 -136.081 	 17.8022 	 -20.0015 	 
C 	 -135.125 	 16.7087 	 -19.889 	 
C 	 -134.338 	 16.6771 	 -18.7443 	 
H 	 -136.853 	 18.0613 	 -20.6498 	 
C 	 -135.118 	 15.6433 	 -20.9652 	 
H 	 -136.102 	 15.215 	 -21.1589 	 
H 	 -134.506 	 14.7557 	 -20.7197 	 
C 	 -134.614 	 16.2541 	 -22.3288 	 
H 	 -133.68 	 16.7669 	 -22.2384 	 
H 	 -135.272 	 17.0114 	 -22.6547 	 
C 	 -134.507 	 15.2053 	 -23.3096 	 
H 	 -133.674 	 14.4556 	 -23.1646 	 
H 	 -134.438 	 15.6536 	 -24.3606 	 
H 	 -135.297 	 14.5275 	 -23.2754 	 
H 	 -130.38 	 14.5221 	 -16.6003 	 
H 	 -136.519 	 19.4577 	 -18.8746 	 
