34

S 	 -137.597 	 23.9428 	 -16.8884 	 
C 	 -138.779 	 23.176 	 -17.9297 	 
C 	 -138.146 	 22.6084 	 -19.0212 	 
C 	 -136.83 	 23.0984 	 -19.0915 	 
C 	 -136.395 	 23.8941 	 -18.0589 	 
H 	 -136.129 	 22.7904 	 -19.8927 	 
C 	 -138.829 	 22.0037 	 -20.2086 	 
H 	 -138.602 	 22.6969 	 -21.0564 	 
H 	 -139.883 	 22.108 	 -19.9954 	 
C 	 -138.395 	 20.6114 	 -20.6365 	 
H 	 -138.988 	 20.2127 	 -21.3736 	 
H 	 -137.355 	 20.7417 	 -21.0743 	 
C 	 -138.496 	 19.6513 	 -19.4697 	 
H 	 -137.673 	 19.8463 	 -18.8127 	 
H 	 -139.399 	 19.7984 	 -18.9155 	 
H 	 -138.454 	 18.5832 	 -19.8165 	 
S 	 -134.345 	 24.104 	 -16.2401 	 
C 	 -132.771 	 24.5947 	 -16.797 	 
C 	 -132.863 	 25.2079 	 -18.0323 	 
C 	 -134.207 	 25.142 	 -18.5168 	 
C 	 -135.058 	 24.3999 	 -17.7731 	 
H 	 -131.984 	 25.6537 	 -18.4794 	 
C 	 -134.426 	 25.6641 	 -19.9175 	 
H 	 -133.821 	 26.5218 	 -20.0072 	 
H 	 -135.461 	 26.0537 	 -19.9306 	 
C 	 -134.139 	 24.7489 	 -21.1132 	 
H 	 -134.572 	 23.7957 	 -20.8646 	 
H 	 -133.052 	 24.5437 	 -21.13 	 
C 	 -134.701 	 25.1608 	 -22.5207 	 
H 	 -134.19 	 25.9871 	 -23.1049 	 
H 	 -135.677 	 25.5287 	 -22.3585 	 
H 	 -134.764 	 24.2655 	 -23.0462 	 
H 	 -139.824 	 23.0338 	 -17.7884 	 
H 	 -131.975 	 24.5902 	 -16.1307 	 
