34

S 	 -68.4856 	 20.1411 	 -108.789 	 
C 	 -69.2598 	 18.5137 	 -108.946 	 
C 	 -68.3778 	 17.4719 	 -108.666 	 
C 	 -66.999 	 18.0135 	 -108.69 	 
C 	 -66.9321 	 19.3719 	 -108.859 	 
H 	 -66.0518 	 17.4829 	 -108.648 	 
C 	 -68.6686 	 15.9524 	 -108.546 	 
H 	 -69.1263 	 15.7521 	 -107.513 	 
H 	 -67.7096 	 15.3956 	 -108.661 	 
C 	 -69.55 	 15.3211 	 -109.653 	 
H 	 -70.5346 	 15.7534 	 -109.692 	 
H 	 -69.147 	 15.3939 	 -110.691 	 
C 	 -69.8402 	 13.8136 	 -109.544 	 
H 	 -70.0041 	 13.6609 	 -108.425 	 
H 	 -70.769 	 13.4612 	 -110.107 	 
H 	 -68.9396 	 13.2289 	 -109.866 	 
S 	 -64.9282 	 20.8815 	 -107.781 	 
C 	 -63.5679 	 21.3886 	 -108.694 	 
C 	 -63.8003 	 21.1347 	 -110.031 	 
C 	 -65.0915 	 20.5735 	 -110.277 	 
C 	 -65.7764 	 20.1999 	 -109.107 	 
H 	 -63.0965 	 21.3179 	 -110.838 	 
C 	 -65.5461 	 20.2703 	 -111.743 	 
H 	 -65.404 	 21.2187 	 -112.281 	 
H 	 -66.5696 	 19.8216 	 -111.711 	 
C 	 -64.6916 	 19.1684 	 -112.387 	 
H 	 -63.6402 	 19.472 	 -112.34 	 
H 	 -64.9832 	 19.2081 	 -113.443 	 
C 	 -64.928 	 17.7268 	 -111.832 	 
H 	 -64.4455 	 16.9943 	 -112.512 	 
H 	 -66.0448 	 17.688 	 -111.911 	 
H 	 -64.6324 	 17.6948 	 -110.819 	 
H 	 -70.3051 	 18.34 	 -108.948 	 
H 	 -62.5491 	 21.4962 	 -108.291 	 
