34

S 	 -55.5738 	 6.58907 	 -20.0223 	 
C 	 -55.0622 	 4.96475 	 -19.7756 	 
C 	 -54.3829 	 4.44691 	 -20.8634 	 
C 	 -54.0637 	 5.50293 	 -21.7338 	 
C 	 -54.6536 	 6.72255 	 -21.5018 	 
H 	 -53.4746 	 5.32052 	 -22.6173 	 
C 	 -53.8236 	 3.08746 	 -20.8615 	 
H 	 -53.0281 	 2.96547 	 -20.1882 	 
H 	 -53.1774 	 2.96779 	 -21.7862 	 
C 	 -54.8213 	 1.8961 	 -20.8113 	 
H 	 -55.5604 	 2.20798 	 -20.0977 	 
H 	 -55.1606 	 1.54307 	 -21.8431 	 
C 	 -54.3092 	 0.646478 	 -20.0927 	 
H 	 -53.5506 	 0.143121 	 -20.6755 	 
H 	 -53.9386 	 0.82958 	 -19.0841 	 
H 	 -55.1402 	 -0.0527763 	 -19.9986 	 
S 	 -52.9975 	 8.35228 	 -22.9287 	 
C 	 -53.6955 	 9.60179 	 -23.9092 	 
C 	 -55.013 	 9.78731 	 -23.6605 	 
C 	 -55.5596 	 8.88355 	 -22.6857 	 
C 	 -54.612 	 7.91911 	 -22.346 	 
H 	 -55.5276 	 10.5794 	 -24.1666 	 
C 	 -57.0543 	 8.86671 	 -22.3102 	 
H 	 -57.5757 	 9.80112 	 -22.6418 	 
H 	 -57.083 	 8.90935 	 -21.2706 	 
C 	 -57.9166 	 7.74438 	 -23.0188 	 
H 	 -57.6543 	 6.77489 	 -22.7545 	 
H 	 -57.6712 	 7.81181 	 -24.0997 	 
C 	 -59.4029 	 7.96925 	 -22.8625 	 
H 	 -59.9596 	 6.98566 	 -22.9914 	 
H 	 -59.7454 	 8.72968 	 -23.5607 	 
H 	 -59.638 	 8.35613 	 -21.8277 	 
H 	 -55.241 	 4.30215 	 -18.9832 	 
H 	 -53.0732 	 10.3695 	 -24.493 	 
