34

S 	 -103.721 	 61.0131 	 -3.96259 	 
C 	 -102.996 	 62.5409 	 -4.34461 	 
C 	 -103.643 	 63.2379 	 -5.30156 	 
C 	 -104.623 	 62.3787 	 -5.90842 	 
C 	 -104.923 	 61.315 	 -5.09779 	 
H 	 -105.361 	 62.7639 	 -6.65725 	 
C 	 -103.339 	 64.6903 	 -5.85942 	 
H 	 -102.894 	 65.3162 	 -5.08712 	 
H 	 -104.336 	 65.1602 	 -6.10222 	 
C 	 -102.407 	 64.62 	 -7.13727 	 
H 	 -101.47 	 64.1257 	 -6.99956 	 
H 	 -102.994 	 64.184 	 -8.0009 	 
C 	 -102.138 	 66.0772 	 -7.64506 	 
H 	 -101.964 	 66.1086 	 -8.74614 	 
H 	 -102.968 	 66.7655 	 -7.72641 	 
H 	 -101.355 	 66.7139 	 -7.23717 	 
S 	 -106.125 	 58.8277 	 -4.7432 	 
C 	 -107.825 	 58.7381 	 -5.03576 	 
C 	 -108.419 	 59.9632 	 -5.11429 	 
C 	 -107.484 	 61.0518 	 -5.22981 	 
C 	 -106.167 	 60.5893 	 -5.16075 	 
H 	 -109.464 	 59.9908 	 -5.23336 	 
C 	 -107.908 	 62.5222 	 -5.39382 	 
H 	 -107.146 	 63.1954 	 -4.9212 	 
H 	 -108.766 	 62.7731 	 -4.7808 	 
C 	 -108.307 	 62.8594 	 -6.87357 	 
H 	 -109.353 	 62.665 	 -7.00929 	 
H 	 -107.769 	 62.1832 	 -7.52788 	 
C 	 -108.183 	 64.3043 	 -7.33101 	 
H 	 -107.125 	 64.6474 	 -7.34191 	 
H 	 -108.674 	 64.7807 	 -6.49031 	 
H 	 -108.641 	 64.4946 	 -8.32072 	 
H 	 -102.042 	 62.8631 	 -3.93908 	 
H 	 -108.374 	 57.793 	 -4.87579 	 
