34

S 	 -90.6083 	 -30.8881 	 -60.3911 	 
C 	 -89.7461 	 -29.9559 	 -61.552 	 
C 	 -88.7171 	 -29.1694 	 -60.9433 	 
C 	 -88.7287 	 -29.287 	 -59.5597 	 
C 	 -89.7044 	 -30.1491 	 -59.1121 	 
H 	 -87.9888 	 -28.9638 	 -58.906 	 
C 	 -87.929 	 -28.2104 	 -61.7655 	 
H 	 -87.5363 	 -28.7834 	 -62.5861 	 
H 	 -87.012 	 -27.7972 	 -61.3048 	 
C 	 -88.7033 	 -26.9971 	 -62.3902 	 
H 	 -88.0289 	 -26.6691 	 -63.2194 	 
H 	 -89.5758 	 -27.4494 	 -62.8517 	 
C 	 -89.251 	 -25.9622 	 -61.4785 	 
H 	 -88.4857 	 -25.2841 	 -61.092 	 
H 	 -89.9754 	 -25.339 	 -61.937 	 
H 	 -89.9015 	 -26.4531 	 -60.6999 	 
S 	 -89.5827 	 -32.3704 	 -57.5192 	 
C 	 -89.8511 	 -32.1307 	 -55.8115 	 
C 	 -89.8241 	 -30.8274 	 -55.4442 	 
C 	 -89.9373 	 -29.9806 	 -56.5731 	 
C 	 -89.8666 	 -30.6422 	 -57.7451 	 
H 	 -90.032 	 -30.443 	 -54.4544 	 
C 	 -89.8707 	 -28.4877 	 -56.4314 	 
H 	 -90.4884 	 -28.0601 	 -57.2289 	 
H 	 -88.8212 	 -28.2156 	 -56.5868 	 
C 	 -90.2328 	 -27.8201 	 -55.1407 	 
H 	 -90.0198 	 -26.7273 	 -55.2334 	 
H 	 -89.5479 	 -28.1675 	 -54.3895 	 
C 	 -91.6833 	 -28.029 	 -54.6704 	 
H 	 -91.7312 	 -27.7287 	 -53.6881 	 
H 	 -91.9619 	 -29.0545 	 -54.6193 	 
H 	 -92.3285 	 -27.3545 	 -55.213 	 
H 	 -90.0422 	 -29.9849 	 -62.5781 	 
H 	 -90.2711 	 -32.9071 	 -55.2108 	 
