34

S 	 -122.251 	 33.9018 	 -122.539 	 
C 	 -120.604 	 33.8028 	 -123.211 	 
C 	 -119.687 	 33.6361 	 -122.176 	 
C 	 -120.41 	 33.487 	 -120.949 	 
C 	 -121.772 	 33.6841 	 -120.976 	 
H 	 -119.962 	 33.3643 	 -119.907 	 
C 	 -118.191 	 33.4588 	 -122.323 	 
H 	 -118.018 	 33.0046 	 -123.293 	 
H 	 -117.876 	 32.6606 	 -121.618 	 
C 	 -117.375 	 34.7373 	 -122.178 	 
H 	 -116.283 	 34.6518 	 -122.474 	 
H 	 -117.783 	 35.4571 	 -122.916 	 
C 	 -117.452 	 35.5261 	 -120.85 	 
H 	 -117.552 	 34.8371 	 -120.045 	 
H 	 -116.557 	 36.1326 	 -120.604 	 
H 	 -118.298 	 36.2453 	 -120.78 	 
S 	 -123.781 	 32.3293 	 -119.685 	 
C 	 -124.758 	 33.1726 	 -118.545 	 
C 	 -124.15 	 34.3553 	 -118.182 	 
C 	 -122.866 	 34.5343 	 -118.8 	 
C 	 -122.677 	 33.6734 	 -119.845 	 
H 	 -124.554 	 34.9114 	 -117.356 	 
C 	 -122.05 	 35.7945 	 -118.469 	 
H 	 -122.759 	 36.6314 	 -118.689 	 
H 	 -121.178 	 35.8381 	 -119.103 	 
C 	 -121.626 	 35.825 	 -117.022 	 
H 	 -121.279 	 34.8617 	 -116.699 	 
H 	 -122.436 	 36.0082 	 -116.32 	 
C 	 -120.479 	 36.8321 	 -116.823 	 
H 	 -120.784 	 37.8468 	 -116.898 	 
H 	 -119.678 	 36.7916 	 -117.508 	 
H 	 -120.006 	 36.6073 	 -115.863 	 
H 	 -120.369 	 33.7153 	 -124.264 	 
H 	 -125.608 	 32.7721 	 -118.038 	 
