34

S 	 25.1179 	 -23.6012 	 -123.111 	 
C 	 25.5091 	 -24.6566 	 -124.431 	 
C 	 25.7591 	 -25.94 	 -123.958 	 
C 	 25.7406 	 -26.0073 	 -122.524 	 
C 	 25.367 	 -24.8094 	 -121.911 	 
H 	 25.6931 	 -26.8378 	 -121.914 	 
C 	 25.931 	 -27.253 	 -124.79 	 
H 	 26.375 	 -27.9433 	 -124.04 	 
H 	 26.6262 	 -27.0585 	 -125.571 	 
C 	 24.7174 	 -27.8921 	 -125.438 	 
H 	 23.8129 	 -28.0429 	 -124.838 	 
H 	 24.4672 	 -27.1997 	 -126.233 	 
C 	 25.0191 	 -29.2551 	 -126.033 	 
H 	 25.3174 	 -29.9137 	 -125.262 	 
H 	 24.1323 	 -29.8221 	 -126.448 	 
H 	 25.955 	 -29.2205 	 -126.654 	 
S 	 26.7259 	 -23.5372 	 -119.925 	 
C 	 26.6446 	 -24.0981 	 -118.273 	 
C 	 25.4879 	 -24.8415 	 -118.12 	 
C 	 24.9794 	 -25.3207 	 -119.374 	 
C 	 25.4885 	 -24.6147 	 -120.436 	 
H 	 25.1866 	 -25.229 	 -117.162 	 
C 	 23.9966 	 -26.4162 	 -119.406 	 
H 	 24.5901 	 -27.267 	 -119.005 	 
H 	 23.671 	 -26.6479 	 -120.454 	 
C 	 22.7079 	 -26.1925 	 -118.594 	 
H 	 23.0086 	 -26.0483 	 -117.61 	 
H 	 21.9884 	 -27.0267 	 -118.641 	 
C 	 21.9596 	 -24.9526 	 -118.906 	 
H 	 21.2652 	 -24.6832 	 -118.01 	 
H 	 21.2803 	 -25.1667 	 -119.659 	 
H 	 22.5937 	 -24.1227 	 -119.235 	 
H 	 25.605 	 -24.332 	 -125.474 	 
H 	 27.3204 	 -23.826 	 -117.432 	 
