34

S 	 -97.8818 	 -25.7368 	 -60.0384 	 
C 	 -99.605 	 -25.9645 	 -60.5199 	 
C 	 -100.159 	 -24.7332 	 -60.8912 	 
C 	 -99.2954 	 -23.6605 	 -60.7389 	 
C 	 -97.9834 	 -24.0471 	 -60.4615 	 
H 	 -99.6081 	 -22.6693 	 -61.0285 	 
C 	 -101.597 	 -24.5727 	 -61.4044 	 
H 	 -101.992 	 -23.6403 	 -60.8252 	 
H 	 -102.291 	 -25.3199 	 -61.0398 	 
C 	 -101.793 	 -24.6027 	 -62.9393 	 
H 	 -101.125 	 -23.8667 	 -63.383 	 
H 	 -101.513 	 -25.578 	 -63.2819 	 
C 	 -103.253 	 -24.2307 	 -63.3676 	 
H 	 -103.586 	 -23.2688 	 -63.0754 	 
H 	 -103.209 	 -24.2162 	 -64.4158 	 
H 	 -103.835 	 -24.9968 	 -62.8362 	 
S 	 -95.806 	 -23.5184 	 -58.8647 	 
C 	 -94.7963 	 -22.16 	 -59.2456 	 
C 	 -94.9825 	 -21.7767 	 -60.5391 	 
C 	 -96.1684 	 -22.3247 	 -61.1169 	 
C 	 -96.8076 	 -23.2503 	 -60.2887 	 
H 	 -94.5119 	 -20.8515 	 -60.8227 	 
C 	 -96.7078 	 -21.8558 	 -62.4239 	 
H 	 -97.7885 	 -22.0688 	 -62.5928 	 
H 	 -96.1889 	 -22.4079 	 -63.1947 	 
C 	 -96.4813 	 -20.3506 	 -62.537 	 
H 	 -95.4556 	 -20.0714 	 -62.6003 	 
H 	 -97.0642 	 -19.8319 	 -61.7112 	 
C 	 -97.2261 	 -19.7307 	 -63.6909 	 
H 	 -97.3624 	 -18.6385 	 -63.5918 	 
H 	 -98.2778 	 -20.1124 	 -63.8527 	 
H 	 -96.7848 	 -19.9086 	 -64.7358 	 
H 	 -100.063 	 -26.849 	 -60.9095 	 
H 	 -94.0196 	 -21.7485 	 -58.5921 	 
