34

S 	 -97.2967 	 6.39254 	 0.0967405 	 
C 	 -95.8308 	 5.76149 	 0.811636 	 
C 	 -95.3296 	 6.66391 	 1.74642 	 
C 	 -96.1971 	 7.7409 	 1.94133 	 
C 	 -97.1924 	 7.89045 	 1.02272 	 
H 	 -96.0321 	 8.50164 	 2.63061 	 
C 	 -94.056 	 6.5089 	 2.53961 	 
H 	 -93.5062 	 7.45413 	 2.48357 	 
H 	 -93.4321 	 5.6374 	 2.14962 	 
C 	 -94.3382 	 6.12764 	 4.01668 	 
H 	 -94.5737 	 7.05982 	 4.46175 	 
H 	 -95.1556 	 5.39576 	 4.07701 	 
C 	 -93.028 	 5.45901 	 4.68078 	 
H 	 -92.6222 	 4.77281 	 3.94138 	 
H 	 -92.27 	 6.14773 	 4.89075 	 
H 	 -93.2691 	 4.91184 	 5.61593 	 
S 	 -99.9575 	 8.02383 	 1.40096 	 
C 	 -100.853 	 9.51611 	 1.45811 	 
C 	 -99.9239 	 10.524 	 1.42533 	 
C 	 -98.5223 	 10.1368 	 1.20925 	 
C 	 -98.3171 	 8.73163 	 1.23951 	 
H 	 -100.333 	 11.5652 	 1.49984 	 
C 	 -97.4857 	 11.1517 	 0.996882 	 
H 	 -97.8624 	 12.0804 	 0.514995 	 
H 	 -96.6215 	 10.6979 	 0.450461 	 
C 	 -96.8342 	 11.5165 	 2.38137 	 
H 	 -97.0035 	 10.6653 	 3.01932 	 
H 	 -97.3844 	 12.2292 	 2.85425 	 
C 	 -95.4052 	 11.9901 	 2.2916 	 
H 	 -95.3017 	 13.0261 	 1.96967 	 
H 	 -94.9017 	 11.2938 	 1.60529 	 
H 	 -94.8578 	 12.1445 	 3.20601 	 
H 	 -95.2416 	 4.83782 	 0.688431 	 
H 	 -102.008 	 9.7089 	 1.57402 	 
