34

S 	 -65.3653 	 -47.9547 	 -92.8329 	 
C 	 -63.7558 	 -47.2363 	 -92.5856 	 
C 	 -63.0303 	 -48.0327 	 -91.7663 	 
C 	 -63.7048 	 -49.2201 	 -91.3374 	 
C 	 -65.0455 	 -49.3043 	 -91.7338 	 
H 	 -63.3825 	 -49.9845 	 -90.6298 	 
C 	 -61.6388 	 -47.7317 	 -91.2751 	 
H 	 -60.9697 	 -48.0295 	 -92.0766 	 
H 	 -61.4387 	 -48.4934 	 -90.5155 	 
C 	 -61.3569 	 -46.3725 	 -90.7412 	 
H 	 -61.8669 	 -45.6312 	 -91.3903 	 
H 	 -61.8704 	 -46.2121 	 -89.814 	 
C 	 -59.8545 	 -46.1437 	 -90.7858 	 
H 	 -59.3427 	 -46.1683 	 -91.7654 	 
H 	 -59.6922 	 -45.12 	 -90.523 	 
H 	 -59.3286 	 -46.7286 	 -90.053 	 
S 	 -67.3788 	 -49.5913 	 -90.1758 	 
C 	 -67.7992 	 -51.2517 	 -89.7895 	 
C 	 -67.1144 	 -52.1391 	 -90.5771 	 
C 	 -66.136 	 -51.5566 	 -91.3816 	 
C 	 -66.0683 	 -50.1985 	 -91.2238 	 
H 	 -67.3297 	 -53.2042 	 -90.5654 	 
C 	 -65.198 	 -52.4581 	 -92.1953 	 
H 	 -65.426 	 -53.5236 	 -92.0024 	 
H 	 -64.1873 	 -52.3215 	 -91.8812 	 
C 	 -65.3208 	 -52.21 	 -93.6871 	 
H 	 -64.3751 	 -52.4839 	 -94.0745 	 
H 	 -65.53 	 -51.2187 	 -93.9948 	 
C 	 -66.3741 	 -53.135 	 -94.2473 	 
H 	 -67.3742 	 -52.9261 	 -93.916 	 
H 	 -66.0663 	 -54.1632 	 -93.9919 	 
H 	 -66.4399 	 -53.181 	 -95.3599 	 
H 	 -63.4121 	 -46.3974 	 -93.1509 	 
H 	 -68.6001 	 -51.557 	 -89.1992 	 
