34

S 	 -111.956 	 59.0059 	 -20.144 	 
C 	 -110.915 	 60.4188 	 -20.1696 	 
C 	 -111.274 	 61.3904 	 -21.0766 	 
C 	 -112.277 	 60.8519 	 -21.9243 	 
C 	 -112.613 	 59.5133 	 -21.7205 	 
H 	 -112.742 	 61.4394 	 -22.7486 	 
C 	 -110.548 	 62.6853 	 -21.3454 	 
H 	 -109.747 	 62.5 	 -22.0999 	 
H 	 -110.042 	 62.9869 	 -20.4147 	 
C 	 -111.512 	 63.8381 	 -21.7993 	 
H 	 -112.341 	 63.4558 	 -22.3656 	 
H 	 -111.949 	 64.2859 	 -20.8564 	 
C 	 -110.887 	 65.0033 	 -22.5691 	 
H 	 -110.232 	 64.7082 	 -23.354 	 
H 	 -111.646 	 65.7663 	 -22.8513 	 
H 	 -110.285 	 65.4739 	 -21.816 	 
S 	 -114.95 	 57.8503 	 -21.7017 	 
C 	 -115.436 	 57.096 	 -23.1639 	 
C 	 -114.908 	 57.6623 	 -24.2811 	 
C 	 -113.813 	 58.5809 	 -23.9159 	 
C 	 -113.676 	 58.7499 	 -22.5062 	 
H 	 -115.202 	 57.3044 	 -25.2815 	 
C 	 -113.001 	 59.2028 	 -25.0046 	 
H 	 -112.702 	 60.1753 	 -24.5472 	 
H 	 -113.524 	 59.3894 	 -25.8924 	 
C 	 -111.642 	 58.5646 	 -25.4067 	 
H 	 -111.786 	 57.6665 	 -26.0229 	 
H 	 -111.1 	 58.2061 	 -24.5675 	 
C 	 -110.745 	 59.4751 	 -26.179 	 
H 	 -109.751 	 59.0305 	 -26.32 	 
H 	 -110.555 	 60.404 	 -25.6803 	 
H 	 -111.172 	 59.8019 	 -27.0908 	 
H 	 -110.057 	 60.4244 	 -19.4169 	 
H 	 -115.994 	 56.2305 	 -23.1976 	 
