34

S 	 -106.495 	 64.6789 	 -11.6206 	 
C 	 -105.651 	 66.1961 	 -11.6185 	 
C 	 -105.366 	 66.6246 	 -10.3421 	 
C 	 -105.567 	 65.5736 	 -9.38725 	 
C 	 -106.177 	 64.4507 	 -9.93173 	 
H 	 -105.164 	 65.5527 	 -8.36201 	 
C 	 -104.507 	 67.8205 	 -10.0528 	 
H 	 -104.107 	 67.6843 	 -9.02153 	 
H 	 -105.264 	 68.6579 	 -9.94185 	 
C 	 -103.221 	 68.047 	 -10.9445 	 
H 	 -102.312 	 67.4833 	 -10.6189 	 
H 	 -103.502 	 67.9516 	 -11.9769 	 
C 	 -102.675 	 69.3973 	 -10.9997 	 
H 	 -101.991 	 69.5099 	 -11.8972 	 
H 	 -103.542 	 70.0318 	 -11.1466 	 
H 	 -102.207 	 69.7084 	 -10.085 	 
S 	 -105.6 	 61.6481 	 -10.0823 	 
C 	 -106.273 	 60.5954 	 -8.77263 	 
C 	 -106.819 	 61.3954 	 -7.74076 	 
C 	 -106.713 	 62.8132 	 -8.00619 	 
C 	 -106.262 	 63.1329 	 -9.28249 	 
H 	 -107.28 	 60.9396 	 -6.86618 	 
C 	 -107.331 	 63.7938 	 -7.04211 	 
H 	 -107.099 	 64.8431 	 -7.25611 	 
H 	 -106.896 	 63.5987 	 -6.0798 	 
C 	 -108.847 	 63.5325 	 -6.77408 	 
H 	 -109.229 	 64.1701 	 -5.94856 	 
H 	 -109.008 	 62.5425 	 -6.39634 	 
C 	 -109.733 	 63.6174 	 -7.98737 	 
H 	 -110.74 	 63.3375 	 -7.77703 	 
H 	 -109.433 	 62.8825 	 -8.65531 	 
H 	 -109.609 	 64.62 	 -8.52161 	 
H 	 -105.425 	 66.7436 	 -12.4897 	 
H 	 -106.117 	 59.5976 	 -8.54987 	 
