34

S 	 -50.2184 	 -50.5111 	 -77.1298 	 
C 	 -49.8251 	 -49.1236 	 -76.1635 	 
C 	 -49.0117 	 -48.3146 	 -76.9093 	 
C 	 -48.6871 	 -48.8758 	 -78.203 	 
C 	 -49.3972 	 -50.0237 	 -78.5874 	 
H 	 -47.983 	 -48.4403 	 -78.886 	 
C 	 -48.5144 	 -46.9705 	 -76.5035 	 
H 	 -47.4735 	 -46.7223 	 -76.8479 	 
H 	 -48.2725 	 -47.0774 	 -75.4534 	 
C 	 -49.2928 	 -45.6454 	 -76.7918 	 
H 	 -48.5049 	 -44.9028 	 -76.7234 	 
H 	 -49.5636 	 -45.7222 	 -77.8899 	 
C 	 -50.4182 	 -45.2892 	 -75.8398 	 
H 	 -51.2855 	 -45.9257 	 -75.9894 	 
H 	 -50.1624 	 -45.5133 	 -74.8348 	 
H 	 -50.797 	 -44.26 	 -76.1258 	 
S 	 -49.0996 	 -52.6272 	 -79.3356 	 
C 	 -48.7258 	 -52.9367 	 -80.9898 	 
C 	 -48.9186 	 -51.8407 	 -81.7277 	 
C 	 -49.0907 	 -50.6492 	 -81.0323 	 
C 	 -49.2701 	 -50.9209 	 -79.6723 	 
H 	 -48.8262 	 -52.0104 	 -82.7774 	 
C 	 -49.1929 	 -49.2272 	 -81.7221 	 
H 	 -48.2208 	 -49.0217 	 -82.281 	 
H 	 -49.2016 	 -48.4669 	 -81.0012 	 
C 	 -50.4548 	 -49.0451 	 -82.5604 	 
H 	 -51.3307 	 -49.2967 	 -81.9517 	 
H 	 -50.3865 	 -49.6918 	 -83.4259 	 
C 	 -50.5693 	 -47.5701 	 -83.0151 	 
H 	 -51.5684 	 -47.3425 	 -83.4297 	 
H 	 -49.8966 	 -47.3891 	 -83.9026 	 
H 	 -50.2888 	 -46.9054 	 -82.211 	 
H 	 -50.0485 	 -48.9664 	 -75.1129 	 
H 	 -48.4156 	 -53.8578 	 -81.4461 	 
