34

S 	 -128.865 	 28.2407 	 -21.6211 	 
C 	 -130.211 	 28.1435 	 -20.4672 	 
C 	 -131.391 	 28.6654 	 -21.0184 	 
C 	 -131.094 	 29.2316 	 -22.2473 	 
C 	 -129.787 	 29.1847 	 -22.712 	 
H 	 -131.831 	 29.613 	 -22.8804 	 
C 	 -132.759 	 28.5457 	 -20.3562 	 
H 	 -133.582 	 28.9732 	 -20.9435 	 
H 	 -132.634 	 29.1177 	 -19.4616 	 
C 	 -133.103 	 27.1047 	 -19.9079 	 
H 	 -132.787 	 26.4625 	 -20.6717 	 
H 	 -132.494 	 27.0149 	 -18.9631 	 
C 	 -134.581 	 26.7459 	 -19.5812 	 
H 	 -134.514 	 25.6598 	 -19.2494 	 
H 	 -134.888 	 27.2228 	 -18.6689 	 
H 	 -135.335 	 26.8218 	 -20.3869 	 
S 	 -129.121 	 31.6089 	 -24.0033 	 
C 	 -128.492 	 31.5011 	 -25.61 	 
C 	 -128.151 	 30.1973 	 -25.927 	 
C 	 -128.711 	 29.2032 	 -25.0638 	 
C 	 -129.252 	 29.8004 	 -23.9299 	 
H 	 -127.672 	 29.9562 	 -26.8728 	 
C 	 -128.428 	 27.6891 	 -25.2302 	 
H 	 -128.498 	 27.1602 	 -24.2488 	 
H 	 -127.382 	 27.4428 	 -25.4762 	 
C 	 -129.33 	 26.9229 	 -26.2777 	 
H 	 -129.066 	 25.7771 	 -26.175 	 
H 	 -129.064 	 27.3137 	 -27.2467 	 
C 	 -130.773 	 27.2407 	 -26.0111 	 
H 	 -131.343 	 26.6126 	 -26.7128 	 
H 	 -130.919 	 28.3334 	 -26.1324 	 
H 	 -130.98 	 26.9254 	 -24.9549 	 
H 	 -130.258 	 27.4292 	 -19.6685 	 
H 	 -128.208 	 32.2935 	 -26.3293 	 
