34

S 	 15.3826 	 -13.3565 	 -121.822 	 
C 	 14.9372 	 -11.8899 	 -120.892 	 
C 	 14.569 	 -12.2686 	 -119.633 	 
C 	 14.5366 	 -13.721 	 -119.436 	 
C 	 15.0926 	 -14.4607 	 -120.48 	 
H 	 14.3029 	 -14.1041 	 -118.438 	 
C 	 14.1636 	 -11.4027 	 -118.518 	 
H 	 14.9092 	 -10.596 	 -118.593 	 
H 	 14.3022 	 -11.8966 	 -117.602 	 
C 	 12.7271 	 -10.8179 	 -118.53 	 
H 	 12.6167 	 -10.4065 	 -119.487 	 
H 	 11.9505 	 -11.4743 	 -118.404 	 
C 	 12.5943 	 -9.75282 	 -117.558 	 
H 	 11.5328 	 -9.31534 	 -117.698 	 
H 	 12.6417 	 -10.0572 	 -116.529 	 
H 	 13.2958 	 -8.91514 	 -117.589 	 
S 	 14.3525 	 -16.6631 	 -121.933 	 
C 	 14.8155 	 -18.2591 	 -121.514 	 
C 	 15.4579 	 -18.2272 	 -120.244 	 
C 	 15.6051 	 -16.9323 	 -119.709 	 
C 	 15.2615 	 -15.917 	 -120.623 	 
H 	 15.8276 	 -19.2431 	 -119.876 	 
C 	 16.2958 	 -16.7316 	 -118.412 	 
H 	 16.1155 	 -15.654 	 -118.125 	 
H 	 17.4203 	 -16.9097 	 -118.459 	 
C 	 15.7884 	 -17.5541 	 -117.18 	 
H 	 15.8401 	 -18.636 	 -117.537 	 
H 	 14.713 	 -17.425 	 -117.203 	 
C 	 16.3208 	 -17.2012 	 -115.81 	 
H 	 17.4246 	 -17.3433 	 -115.82 	 
H 	 15.962 	 -17.8606 	 -114.998 	 
H 	 16.0851 	 -16.1899 	 -115.525 	 
H 	 14.8155 	 -10.9358 	 -121.258 	 
H 	 14.7771 	 -19.0945 	 -122.189 	 
