34

S 	 -135.525 	 69.8992 	 -64.6122 	 
C 	 -134.824 	 68.7984 	 -65.7002 	 
C 	 -135.6 	 67.6865 	 -65.9165 	 
C 	 -136.711 	 67.6891 	 -65.0484 	 
C 	 -136.905 	 68.9127 	 -64.3885 	 
H 	 -137.572 	 67.0404 	 -65.0169 	 
C 	 -135.322 	 66.5384 	 -66.8496 	 
H 	 -136.217 	 66.0015 	 -66.9687 	 
H 	 -134.572 	 65.9548 	 -66.2967 	 
C 	 -134.917 	 66.8403 	 -68.2837 	 
H 	 -133.983 	 67.3181 	 -68.2514 	 
H 	 -134.651 	 65.8188 	 -68.7634 	 
C 	 -135.901 	 67.7854 	 -69.1212 	 
H 	 -135.695 	 67.833 	 -70.2099 	 
H 	 -136.964 	 67.5557 	 -68.9892 	 
H 	 -135.758 	 68.8317 	 -68.7838 	 
S 	 -138.662 	 68.2818 	 -62.3405 	 
C 	 -139.896 	 69.3458 	 -61.883 	 
C 	 -139.872 	 70.4745 	 -62.6086 	 
C 	 -138.912 	 70.4616 	 -63.6607 	 
C 	 -138.064 	 69.3573 	 -63.6471 	 
H 	 -140.674 	 71.2349 	 -62.4466 	 
C 	 -138.83 	 71.5809 	 -64.6505 	 
H 	 -137.765 	 71.8241 	 -64.6743 	 
H 	 -139.327 	 72.4236 	 -64.2836 	 
C 	 -139.296 	 71.368 	 -66.1332 	 
H 	 -140.386 	 71.1369 	 -66.0807 	 
H 	 -138.88 	 70.4526 	 -66.4998 	 
C 	 -139.014 	 72.4683 	 -67.1345 	 
H 	 -139.739 	 73.2106 	 -67.092 	 
H 	 -138.907 	 72.09 	 -68.1705 	 
H 	 -137.996 	 72.8369 	 -66.9741 	 
H 	 -133.865 	 68.8695 	 -66.1988 	 
H 	 -140.645 	 69.209 	 -61.0642 	 
