34

S 	 -76.9361 	 -17.6373 	 -54.598 	 
C 	 -78.3457 	 -17.2612 	 -53.6403 	 
C 	 -79.5323 	 -17.3781 	 -54.4058 	 
C 	 -79.241 	 -17.3974 	 -55.7958 	 
C 	 -77.8624 	 -17.4318 	 -56.1026 	 
H 	 -79.9457 	 -17.4519 	 -56.6232 	 
C 	 -80.9237 	 -17.3131 	 -53.8428 	 
H 	 -81.3875 	 -16.4819 	 -54.3075 	 
H 	 -80.8427 	 -17.1815 	 -52.7687 	 
C 	 -81.7481 	 -18.5689 	 -54.0369 	 
H 	 -81.7568 	 -18.8865 	 -55.085 	 
H 	 -81.1425 	 -19.4772 	 -53.5253 	 
C 	 -83.1356 	 -18.3357 	 -53.4783 	 
H 	 -83.8187 	 -19.2026 	 -53.668 	 
H 	 -83.1622 	 -18.0407 	 -52.4566 	 
H 	 -83.7268 	 -17.5129 	 -53.8906 	 
S 	 -76.1174 	 -18.9485 	 -57.6722 	 
C 	 -76.067 	 -18.6027 	 -59.4025 	 
C 	 -76.9496 	 -17.6112 	 -59.6735 	 
C 	 -77.6092 	 -17.0516 	 -58.5665 	 
C 	 -77.3023 	 -17.6407 	 -57.3932 	 
H 	 -77.2013 	 -17.3574 	 -60.6633 	 
C 	 -78.604 	 -15.8732 	 -58.7869 	 
H 	 -77.9486 	 -15.0286 	 -58.8475 	 
H 	 -79.1691 	 -15.5873 	 -57.9138 	 
C 	 -79.5985 	 -15.9888 	 -59.9901 	 
H 	 -79.0767 	 -15.9869 	 -60.9846 	 
H 	 -80.171 	 -15.0118 	 -59.9895 	 
C 	 -80.4861 	 -17.2262 	 -59.901 	 
H 	 -79.9389 	 -18.1601 	 -60.0274 	 
H 	 -81.2056 	 -17.0789 	 -60.7248 	 
H 	 -81.0753 	 -17.2547 	 -58.9708 	 
H 	 -78.3433 	 -17.3605 	 -52.5522 	 
H 	 -75.5003 	 -19.2102 	 -60.1033 	 
