34

S 	 -59.3909 	 10.532 	 23.3973 	 
C 	 -59.9914 	 11.5471 	 22.0619 	 
C 	 -60.6751 	 10.7947 	 21.0936 	 
C 	 -60.9183 	 9.42223 	 21.5111 	 
C 	 -60.4142 	 9.19061 	 22.8182 	 
H 	 -61.5418 	 8.56889 	 21.0699 	 
C 	 -61.1244 	 11.2634 	 19.7032 	 
H 	 -60.7232 	 12.2292 	 19.6235 	 
H 	 -62.2355 	 11.3938 	 19.7323 	 
C 	 -60.7592 	 10.4875 	 18.4204 	 
H 	 -59.6711 	 10.6505 	 18.3152 	 
H 	 -61.0697 	 9.43849 	 18.4569 	 
C 	 -61.2784 	 11.2742 	 17.1878 	 
H 	 -60.8587 	 10.8178 	 16.2507 	 
H 	 -62.401 	 11.3261 	 17.3312 	 
H 	 -60.8833 	 12.3461 	 17.1755 	 
S 	 -61.564 	 8.11362 	 25.0323 	 
C 	 -61.5928 	 6.37527 	 25.1464 	 
C 	 -60.6975 	 5.74081 	 24.2646 	 
C 	 -60.2568 	 6.65136 	 23.3022 	 
C 	 -60.6174 	 7.97158 	 23.6177 	 
H 	 -60.734 	 4.68995 	 24.2895 	 
C 	 -59.6633 	 6.22035 	 22.0317 	 
H 	 -58.6657 	 5.8228 	 22.2832 	 
H 	 -59.6236 	 7.1279 	 21.3419 	 
C 	 -60.436 	 5.18001 	 21.1868 	 
H 	 -61.4564 	 5.65176 	 21.0016 	 
H 	 -60.6614 	 4.28197 	 21.8073 	 
C 	 -59.8481 	 4.88805 	 19.8196 	 
H 	 -58.7341 	 4.69471 	 19.9633 	 
H 	 -59.9674 	 5.77586 	 19.1846 	 
H 	 -60.4204 	 3.98449 	 19.4676 	 
H 	 -59.7166 	 12.6217 	 22.0866 	 
H 	 -62.126 	 5.89436 	 25.8946 	 
