34

S 	 26.1118 	 -0.506131 	 -108.161 	 
C 	 27.44 	 -0.396239 	 -109.304 	 
C 	 27.2178 	 -1.15473 	 -110.406 	 
C 	 26.0677 	 -1.97952 	 -110.294 	 
C 	 25.3602 	 -1.76502 	 -109.146 	 
H 	 25.6749 	 -2.77639 	 -110.964 	 
C 	 28.1686 	 -1.29993 	 -111.549 	 
H 	 28.225 	 -2.34302 	 -111.927 	 
H 	 29.1636 	 -1.0408 	 -111.155 	 
C 	 27.7119 	 -0.56562 	 -112.754 	 
H 	 26.7958 	 -1.15494 	 -113.09 	 
H 	 27.3531 	 0.393836 	 -112.528 	 
C 	 28.7696 	 -0.476359 	 -113.857 	 
H 	 28.5515 	 0.26751 	 -114.639 	 
H 	 29.7588 	 -0.222423 	 -113.534 	 
H 	 28.7975 	 -1.48736 	 -114.382 	 
S 	 22.7866 	 -1.19145 	 -109.064 	 
C 	 21.5925 	 -2.2982 	 -108.619 	 
C 	 22.138 	 -3.53624 	 -108.434 	 
C 	 23.566 	 -3.57803 	 -108.519 	 
C 	 24.0743 	 -2.34213 	 -108.831 	 
H 	 21.5115 	 -4.35623 	 -108.309 	 
C 	 24.3617 	 -4.88031 	 -108.305 	 
H 	 24.5438 	 -5.24726 	 -109.3 	 
H 	 23.7822 	 -5.57452 	 -107.669 	 
C 	 25.7229 	 -4.52951 	 -107.575 	 
H 	 25.6351 	 -3.84936 	 -106.723 	 
H 	 26.3248 	 -3.89593 	 -108.228 	 
C 	 26.4831 	 -5.75344 	 -107.028 	 
H 	 25.9139 	 -6.21608 	 -106.235 	 
H 	 27.4484 	 -5.48416 	 -106.644 	 
H 	 26.727 	 -6.45161 	 -107.791 	 
H 	 28.4078 	 0.041171 	 -109.01 	 
H 	 20.4908 	 -2.2188 	 -108.602 	 
