34

S 	 -137.35 	 10.0131 	 5.67741 	 
C 	 -136.972 	 10.5823 	 4.08773 	 
C 	 -137.838 	 10.0215 	 3.12963 	 
C 	 -138.731 	 9.05538 	 3.69568 	 
C 	 -138.615 	 8.92243 	 5.08378 	 
H 	 -139.623 	 8.60591 	 3.22832 	 
C 	 -138.187 	 10.571 	 1.79826 	 
H 	 -137.367 	 11.2281 	 1.4963 	 
H 	 -139.077 	 11.18 	 1.76664 	 
C 	 -138.328 	 9.58165 	 0.674533 	 
H 	 -137.498 	 8.85639 	 0.64725 	 
H 	 -139.152 	 9.01129 	 1.01651 	 
C 	 -138.573 	 10.25 	 -0.604338 	 
H 	 -139.495 	 10.8492 	 -0.418207 	 
H 	 -137.761 	 10.9063 	 -1.02444 	 
H 	 -138.889 	 9.54936 	 -1.34988 	 
S 	 -138.571 	 6.4363 	 6.2708 	 
C 	 -139.838 	 6.08045 	 7.36879 	 
C 	 -140.898 	 6.99565 	 7.27862 	 
C 	 -140.641 	 8.06222 	 6.34346 	 
C 	 -139.368 	 8.02057 	 5.96576 	 
H 	 -141.857 	 7.03048 	 7.80773 	 
C 	 -141.598 	 9.17665 	 5.94038 	 
H 	 -141.373 	 9.54297 	 4.97861 	 
H 	 -141.541 	 10.0491 	 6.70761 	 
C 	 -143.085 	 8.78893 	 6.00012 	 
H 	 -143.404 	 7.99434 	 6.63137 	 
H 	 -143.383 	 8.46647 	 5.00528 	 
C 	 -144.087 	 9.8528 	 6.46585 	 
H 	 -143.665 	 10.8988 	 6.2887 	 
H 	 -144.291 	 9.66067 	 7.49632 	 
H 	 -145.058 	 9.83994 	 5.97995 	 
H 	 -136.238 	 11.3711 	 3.80192 	 
H 	 -139.752 	 5.32514 	 8.14477 	 
