34

S 	 -51.2649 	 -47.6311 	 -72.334 	 
C 	 -52.3096 	 -46.6536 	 -73.3391 	 
C 	 -51.5669 	 -46.0527 	 -74.4008 	 
C 	 -50.2071 	 -46.5098 	 -74.4319 	 
C 	 -49.8867 	 -47.2915 	 -73.3753 	 
H 	 -49.4447 	 -46.2324 	 -75.1722 	 
C 	 -52.0584 	 -45.1134 	 -75.4685 	 
H 	 -51.378 	 -44.2473 	 -75.5307 	 
H 	 -53.013 	 -44.7123 	 -75.1453 	 
C 	 -52.1608 	 -45.6641 	 -76.9167 	 
H 	 -53.0043 	 -46.3796 	 -76.8621 	 
H 	 -52.5368 	 -44.9181 	 -77.6264 	 
C 	 -50.8918 	 -46.3176 	 -77.468 	 
H 	 -50.0226 	 -45.6017 	 -77.4972 	 
H 	 -50.4986 	 -47.2256 	 -76.991 	 
H 	 -50.9679 	 -46.5998 	 -78.4452 	 
S 	 -48.6847 	 -49.6614 	 -72.8542 	 
C 	 -47.0244 	 -49.7291 	 -72.3405 	 
C 	 -46.4111 	 -48.5222 	 -72.6134 	 
C 	 -47.2879 	 -47.53 	 -73.1117 	 
C 	 -48.6543 	 -47.9596 	 -73.1216 	 
H 	 -45.3327 	 -48.3581 	 -72.3885 	 
C 	 -46.8507 	 -46.1044 	 -73.3432 	 
H 	 -47.198 	 -45.773 	 -74.3106 	 
H 	 -45.7959 	 -46.1374 	 -73.5232 	 
C 	 -47.1846 	 -45.0436 	 -72.2925 	 
H 	 -47.0447 	 -45.3725 	 -71.2366 	 
H 	 -48.2309 	 -44.8132 	 -72.431 	 
C 	 -46.4116 	 -43.7162 	 -72.4482 	 
H 	 -46.6177 	 -43.174 	 -73.3753 	 
H 	 -45.3415 	 -43.9343 	 -72.5086 	 
H 	 -46.6438 	 -43.0825 	 -71.5511 	 
H 	 -53.3507 	 -46.4609 	 -72.9751 	 
H 	 -46.5114 	 -50.6322 	 -72.1111 	 
