34

S 	 27.0842 	 -6.15877 	 -113.585 	 
C 	 27.1815 	 -7.97757 	 -113.823 	 
C 	 25.9759 	 -8.34029 	 -114.489 	 
C 	 24.9473 	 -7.2917 	 -114.322 	 
C 	 25.4197 	 -6.08993 	 -113.858 	 
H 	 23.8709 	 -7.34304 	 -114.39 	 
C 	 25.6169 	 -9.72454 	 -115.045 	 
H 	 24.5257 	 -9.68414 	 -115.288 	 
H 	 25.6777 	 -10.5372 	 -114.348 	 
C 	 26.491 	 -10.1535 	 -116.175 	 
H 	 27.5422 	 -10.2321 	 -115.914 	 
H 	 25.9838 	 -11.0812 	 -116.666 	 
C 	 26.4885 	 -9.115 	 -117.345 	 
H 	 25.4028 	 -8.928 	 -117.481 	 
H 	 26.8933 	 -8.13526 	 -117.174 	 
H 	 26.925 	 -9.39176 	 -118.299 	 
S 	 25.1663 	 -3.35752 	 -114.197 	 
C 	 23.8512 	 -2.62752 	 -113.466 	 
C 	 23.0549 	 -3.42835 	 -112.679 	 
C 	 23.4309 	 -4.80907 	 -112.866 	 
C 	 24.6412 	 -4.90977 	 -113.564 	 
H 	 22.1391 	 -3.0923 	 -112.199 	 
C 	 22.6669 	 -5.94502 	 -112.242 	 
H 	 22.6329 	 -5.67237 	 -111.189 	 
H 	 23.272 	 -6.87939 	 -112.238 	 
C 	 21.302 	 -6.1321 	 -112.914 	 
H 	 21.451 	 -6.29474 	 -114.023 	 
H 	 20.7138 	 -5.24231 	 -112.764 	 
C 	 20.3883 	 -7.32307 	 -112.486 	 
H 	 19.7385 	 -7.50219 	 -113.313 	 
H 	 19.6911 	 -7.01008 	 -111.703 	 
H 	 20.9401 	 -8.13402 	 -112.084 	 
H 	 28.0652 	 -8.51084 	 -113.806 	 
H 	 23.6811 	 -1.56976 	 -113.58 	 
