34

S 	 -49.5354 	 10.7263 	 -15.483 	 
C 	 -48.8247 	 9.68353 	 -14.2385 	 
C 	 -48.6107 	 8.4102 	 -14.788 	 
C 	 -48.8517 	 8.31529 	 -16.2085 	 
C 	 -49.4231 	 9.47706 	 -16.6929 	 
H 	 -48.6801 	 7.55396 	 -16.9498 	 
C 	 -48.0997 	 7.36798 	 -13.8615 	 
H 	 -48.9349 	 7.24392 	 -13.0911 	 
H 	 -47.31 	 7.78287 	 -13.2604 	 
C 	 -47.5965 	 6.07837 	 -14.3995 	 
H 	 -47.3208 	 5.483 	 -13.4881 	 
H 	 -48.4527 	 5.4685 	 -14.8299 	 
C 	 -46.3946 	 6.21173 	 -15.347 	 
H 	 -45.9435 	 5.20041 	 -15.562 	 
H 	 -46.7487 	 6.52884 	 -16.317 	 
H 	 -45.6069 	 6.86699 	 -14.9428 	 
S 	 -48.9924 	 9.0791 	 -19.4196 	 
C 	 -50.165 	 9.50394 	 -20.6584 	 
C 	 -51.2558 	 10.0496 	 -20.017 	 
C 	 -51.1288 	 10.1829 	 -18.5921 	 
C 	 -49.9552 	 9.64101 	 -18.0496 	 
H 	 -52.1036 	 10.2516 	 -20.6012 	 
C 	 -52.4064 	 10.5907 	 -17.8734 	 
H 	 -52.5106 	 9.69905 	 -17.1985 	 
H 	 -53.2787 	 10.4448 	 -18.6008 	 
C 	 -52.3711 	 11.9173 	 -17.0879 	 
H 	 -52.1762 	 12.6815 	 -17.7841 	 
H 	 -51.5978 	 11.9048 	 -16.3936 	 
C 	 -53.7088 	 12.0722 	 -16.3679 	 
H 	 -54.5593 	 11.9626 	 -17.0689 	 
H 	 -53.5508 	 13.0326 	 -16.0046 	 
H 	 -53.8813 	 11.3885 	 -15.5796 	 
H 	 -48.4399 	 10.0598 	 -13.2675 	 
H 	 -50.1951 	 9.2885 	 -21.7326 	 
