34

S 	 -32.4757 	 18.0474 	 14.2841 	 
C 	 -31.0918 	 19.0789 	 14.3706 	 
C 	 -29.9261 	 18.346 	 14.3143 	 
C 	 -30.1417 	 16.9745 	 14.1217 	 
C 	 -31.4672 	 16.6324 	 13.9398 	 
H 	 -29.2786 	 16.2647 	 14.0885 	 
C 	 -28.567 	 18.9063 	 14.472 	 
H 	 -27.9435 	 18.9025 	 13.5565 	 
H 	 -28.1243 	 18.2587 	 15.2441 	 
C 	 -28.5193 	 20.3914 	 14.8504 	 
H 	 -29.0807 	 21.156 	 14.3062 	 
H 	 -29.0275 	 20.572 	 15.8576 	 
C 	 -27.0204 	 20.7474 	 15.0422 	 
H 	 -26.5544 	 20.0686 	 15.7378 	 
H 	 -26.4683 	 20.7076 	 14.1129 	 
H 	 -26.9163 	 21.7148 	 15.4117 	 
S 	 -33.2494 	 14.7158 	 14.8653 	 
C 	 -33.2926 	 13.1403 	 13.9476 	 
C 	 -32.3464 	 13.0987 	 12.977 	 
C 	 -31.6634 	 14.2874 	 12.8406 	 
C 	 -31.9493 	 15.2809 	 13.7696 	 
H 	 -32.3222 	 12.2803 	 12.2828 	 
C 	 -30.631 	 14.4537 	 11.8019 	 
H 	 -30.2098 	 13.5466 	 11.4211 	 
H 	 -29.7698 	 14.7682 	 12.3412 	 
C 	 -31.0531 	 15.5816 	 10.867 	 
H 	 -31.5941 	 16.4841 	 11.3154 	 
H 	 -31.9419 	 15.1976 	 10.3371 	 
C 	 -29.9893 	 15.9837 	 9.83802 	 
H 	 -29.1469 	 15.2975 	 9.80094 	 
H 	 -29.6256 	 16.9565 	 9.95727 	 
H 	 -30.464 	 15.8151 	 8.88453 	 
H 	 -31.1739 	 20.1008 	 14.6476 	 
H 	 -33.9092 	 12.3359 	 14.2326 	 
