34

S 	 -68.9769 	 2.52709 	 -71.5612 	 
C 	 -67.7269 	 3.63539 	 -71.9709 	 
C 	 -66.4826 	 3.06805 	 -71.9987 	 
C 	 -66.5533 	 1.63235 	 -71.7761 	 
C 	 -67.8584 	 1.25277 	 -71.4442 	 
H 	 -65.73 	 0.880793 	 -71.8809 	 
C 	 -65.1442 	 3.77563 	 -72.3675 	 
H 	 -65.4037 	 4.64823 	 -72.9682 	 
H 	 -64.682 	 2.97385 	 -73.0069 	 
C 	 -64.25 	 4.1671 	 -71.2001 	 
H 	 -64.8862 	 4.77852 	 -70.5681 	 
H 	 -64.1248 	 3.22108 	 -70.7413 	 
C 	 -63.0086 	 4.86999 	 -71.6957 	 
H 	 -62.6424 	 4.80737 	 -72.7738 	 
H 	 -62.926 	 5.93317 	 -71.4881 	 
H 	 -62.1843 	 4.31467 	 -71.2198 	 
S 	 -69.8482 	 -0.699827 	 -71.4009 	 
C 	 -69.5588 	 -2.08594 	 -70.4434 	 
C 	 -68.2158 	 -2.24491 	 -70.0883 	 
C 	 -67.4517 	 -1.12252 	 -70.464 	 
C 	 -68.2483 	 -0.0866313 	 -70.9962 	 
H 	 -67.8947 	 -3.03331 	 -69.4807 	 
C 	 -66.0556 	 -0.997525 	 -69.9528 	 
H 	 -66.0053 	 -1.5959 	 -68.9803 	 
H 	 -65.8777 	 0.123206 	 -69.7398 	 
C 	 -65.0172 	 -1.59028 	 -70.9082 	 
H 	 -65.1714 	 -1.23686 	 -71.9612 	 
H 	 -65.1186 	 -2.73427 	 -70.9572 	 
C 	 -63.562 	 -1.12848 	 -70.6561 	 
H 	 -62.8172 	 -1.18566 	 -71.4939 	 
H 	 -63.1695 	 -1.6268 	 -69.834 	 
H 	 -63.4873 	 -0.0451084 	 -70.4996 	 
H 	 -67.9099 	 4.69895 	 -72.0701 	 
H 	 -70.2511 	 -2.80644 	 -70.0102 	 
