34

S 	 -71.5765 	 10.4099 	 -75.2927 	 
C 	 -71.5874 	 11.4562 	 -76.7148 	 
C 	 -71.0899 	 12.7406 	 -76.428 	 
C 	 -70.5211 	 12.7807 	 -75.1234 	 
C 	 -70.674 	 11.6335 	 -74.3424 	 
H 	 -70.0102 	 13.6245 	 -74.6944 	 
C 	 -70.9423 	 13.9171 	 -77.4354 	 
H 	 -71.718 	 13.81 	 -78.1909 	 
H 	 -69.9249 	 13.8213 	 -77.8679 	 
C 	 -71.0575 	 15.3818 	 -76.7884 	 
H 	 -70.2095 	 15.461 	 -76.0811 	 
H 	 -70.9333 	 16.2025 	 -77.4882 	 
C 	 -72.3288 	 15.5628 	 -75.9573 	 
H 	 -72.5234 	 14.7876 	 -75.2933 	 
H 	 -72.3246 	 16.3968 	 -75.2011 	 
H 	 -73.1856 	 15.7517 	 -76.5853 	 
S 	 -69.9428 	 9.76729 	 -72.4987 	 
C 	 -69.4461 	 10.2754 	 -70.8646 	 
C 	 -69.8827 	 11.5938 	 -70.6959 	 
C 	 -70.3357 	 12.309 	 -71.8958 	 
C 	 -70.2972 	 11.4356 	 -72.935 	 
H 	 -69.6452 	 12.0936 	 -69.7975 	 
C 	 -70.9289 	 13.6997 	 -71.8947 	 
H 	 -71.8754 	 13.5769 	 -71.5048 	 
H 	 -71.099 	 13.9137 	 -72.9481 	 
C 	 -70.1192 	 14.8279 	 -71.2693 	 
H 	 -69.2053 	 15.1105 	 -71.839 	 
H 	 -69.7558 	 14.526 	 -70.2985 	 
C 	 -70.7749 	 16.2574 	 -71.15 	 
H 	 -70.9509 	 16.6419 	 -72.1473 	 
H 	 -70.184 	 17.0068 	 -70.6658 	 
H 	 -71.665 	 16.0797 	 -70.5776 	 
H 	 -71.8681 	 11.1728 	 -77.7172 	 
H 	 -69.0037 	 9.64594 	 -70.1539 	 
