34

S 	 -62.1635 	 12.4644 	 -122.407 	 
C 	 -61.5159 	 12.0795 	 -120.788 	 
C 	 -62.2071 	 12.7487 	 -119.786 	 
C 	 -63.0093 	 13.7951 	 -120.332 	 
C 	 -63.065 	 13.7699 	 -121.721 	 
H 	 -63.4873 	 14.5773 	 -119.787 	 
C 	 -61.9478 	 12.6623 	 -118.326 	 
H 	 -62.9497 	 12.6779 	 -117.776 	 
H 	 -61.5497 	 13.5122 	 -117.859 	 
C 	 -61.1656 	 11.4327 	 -117.792 	 
H 	 -61.7372 	 10.5534 	 -117.835 	 
H 	 -60.307 	 11.2098 	 -118.485 	 
C 	 -60.8361 	 11.5071 	 -116.281 	 
H 	 -61.7593 	 11.5809 	 -115.756 	 
H 	 -60.4608 	 10.4917 	 -116.026 	 
H 	 -60.0756 	 12.3278 	 -115.966 	 
S 	 -62.9829 	 15.3668 	 -123.972 	 
C 	 -64.2497 	 16.5641 	 -124.114 	 
C 	 -65.185 	 16.5328 	 -123.154 	 
C 	 -64.9154 	 15.4943 	 -122.224 	 
C 	 -63.7914 	 14.7368 	 -122.541 	 
H 	 -65.9604 	 17.2819 	 -123.164 	 
C 	 -65.8228 	 15.314 	 -120.994 	 
H 	 -65.7783 	 14.335 	 -120.57 	 
H 	 -66.8294 	 15.2957 	 -121.384 	 
C 	 -65.6823 	 16.3807 	 -119.844 	 
H 	 -66.0781 	 17.34 	 -120.146 	 
H 	 -64.5967 	 16.4915 	 -119.696 	 
C 	 -66.3048 	 15.8564 	 -118.558 	 
H 	 -65.7538 	 14.9965 	 -118.041 	 
H 	 -67.3159 	 15.5495 	 -118.716 	 
H 	 -66.3423 	 16.6523 	 -117.758 	 
H 	 -60.7544 	 11.3044 	 -120.554 	 
H 	 -64.2764 	 17.1396 	 -125.041 	 
