34

S 	 -80.6932 	 -24.8766 	 -53.1373 	 
C 	 -79.8549 	 -24.8572 	 -51.634 	 
C 	 -80.5994 	 -25.5946 	 -50.7156 	 
C 	 -81.7299 	 -26.2669 	 -51.3124 	 
C 	 -81.9023 	 -25.9293 	 -52.6367 	 
H 	 -82.4966 	 -26.9031 	 -50.9452 	 
C 	 -80.3907 	 -25.6657 	 -49.2083 	 
H 	 -79.4255 	 -26.0708 	 -49.0203 	 
H 	 -81.0685 	 -26.3857 	 -48.9398 	 
C 	 -80.6171 	 -24.3874 	 -48.3011 	 
H 	 -80.1008 	 -23.5035 	 -48.7471 	 
H 	 -81.6804 	 -24.1933 	 -48.4787 	 
C 	 -80.2029 	 -24.3623 	 -46.8562 	 
H 	 -79.0613 	 -24.3464 	 -46.8643 	 
H 	 -80.5026 	 -23.4753 	 -46.3614 	 
H 	 -80.6016 	 -25.2594 	 -46.3561 	 
S 	 -83.7063 	 -25.3772 	 -54.6123 	 
C 	 -84.3892 	 -26.6191 	 -55.4949 	 
C 	 -84.1068 	 -27.8345 	 -54.9827 	 
C 	 -83.1607 	 -27.8511 	 -53.9442 	 
C 	 -82.907 	 -26.5291 	 -53.5057 	 
H 	 -84.5682 	 -28.6701 	 -55.4808 	 
C 	 -82.4407 	 -29.059 	 -53.4314 	 
H 	 -83.1766 	 -29.8537 	 -53.1581 	 
H 	 -82.051 	 -28.7744 	 -52.487 	 
C 	 -81.2716 	 -29.5857 	 -54.2663 	 
H 	 -81.6997 	 -29.7282 	 -55.2349 	 
H 	 -80.9398 	 -30.5241 	 -53.8598 	 
C 	 -80.1669 	 -28.5133 	 -54.2797 	 
H 	 -79.723 	 -28.4162 	 -53.2509 	 
H 	 -80.5392 	 -27.6009 	 -54.7159 	 
H 	 -79.3111 	 -28.617 	 -54.9626 	 
H 	 -79.0948 	 -24.1308 	 -51.2845 	 
H 	 -85.0125 	 -26.4418 	 -56.3556 	 
