34

S 	 -116.279 	 56.5749 	 -79.4701 	 
C 	 -117.047 	 57.7854 	 -80.5463 	 
C 	 -116.391 	 57.9105 	 -81.741 	 
C 	 -115.259 	 57.0199 	 -81.7871 	 
C 	 -115.055 	 56.2125 	 -80.6698 	 
H 	 -114.614 	 56.87 	 -82.6113 	 
C 	 -116.707 	 58.8647 	 -82.9004 	 
H 	 -117.816 	 58.8443 	 -83.0491 	 
H 	 -116.211 	 58.4375 	 -83.7609 	 
C 	 -116.239 	 60.3278 	 -82.7327 	 
H 	 -117.014 	 60.945 	 -83.2616 	 
H 	 -116.272 	 60.5488 	 -81.6533 	 
C 	 -114.818 	 60.7186 	 -83.263 	 
H 	 -114.667 	 61.7817 	 -83.155 	 
H 	 -114.082 	 60.18 	 -82.6825 	 
H 	 -114.663 	 60.4827 	 -84.3283 	 
S 	 -114.266 	 53.6423 	 -80.2784 	 
C 	 -112.525 	 53.3057 	 -80.3222 	 
C 	 -111.744 	 54.3757 	 -80.3241 	 
C 	 -112.538 	 55.5724 	 -80.3181 	 
C 	 -113.926 	 55.3164 	 -80.4485 	 
H 	 -110.67 	 54.3972 	 -80.3043 	 
C 	 -111.816 	 56.8956 	 -80.0488 	 
H 	 -110.811 	 56.6209 	 -79.6856 	 
H 	 -112.334 	 57.5342 	 -79.3112 	 
C 	 -111.473 	 57.8403 	 -81.2785 	 
H 	 -112.33 	 58.1428 	 -81.8269 	 
H 	 -110.917 	 57.2901 	 -82.0049 	 
C 	 -110.58 	 58.981 	 -80.7322 	 
H 	 -110.44 	 59.8395 	 -81.3795 	 
H 	 -109.527 	 58.6011 	 -80.4881 	 
H 	 -111.045 	 59.3964 	 -79.8732 	 
H 	 -117.928 	 58.2314 	 -80.2442 	 
H 	 -112.105 	 52.3198 	 -80.4629 	 
