34

S 	 -65.6113 	 15.7133 	 -118.787 	 
C 	 -66.2423 	 14.6506 	 -117.552 	 
C 	 -65.3722 	 14.393 	 -116.51 	 
C 	 -64.143 	 15.1127 	 -116.721 	 
C 	 -64.1735 	 15.9404 	 -117.819 	 
H 	 -63.2354 	 15.1021 	 -116.188 	 
C 	 -65.6506 	 13.4119 	 -115.385 	 
H 	 -66.4121 	 12.7201 	 -115.711 	 
H 	 -66.1617 	 13.995 	 -114.644 	 
C 	 -64.4329 	 12.5091 	 -114.875 	 
H 	 -64.504 	 11.5721 	 -115.485 	 
H 	 -63.3909 	 12.826 	 -115.028 	 
C 	 -64.6072 	 12.0723 	 -113.429 	 
H 	 -63.6965 	 11.6002 	 -113.101 	 
H 	 -64.8186 	 12.8586 	 -112.667 	 
H 	 -65.4749 	 11.3424 	 -113.371 	 
S 	 -62.6628 	 16.836 	 -119.929 	 
C 	 -61.1919 	 17.6452 	 -119.617 	 
C 	 -61.146 	 18.0873 	 -118.329 	 
C 	 -62.244 	 17.6198 	 -117.497 	 
C 	 -63.086 	 16.8044 	 -118.225 	 
H 	 -60.2115 	 18.6428 	 -118.051 	 
C 	 -62.2682 	 17.8946 	 -115.997 	 
H 	 -63.244 	 17.6098 	 -115.67 	 
H 	 -62.2927 	 18.9963 	 -115.898 	 
C 	 -61.0227 	 17.3345 	 -115.183 	 
H 	 -60.1602 	 17.7814 	 -115.561 	 
H 	 -60.8941 	 16.2677 	 -115.384 	 
C 	 -61.0666 	 17.4867 	 -113.679 	 
H 	 -60.1493 	 16.9501 	 -113.182 	 
H 	 -61.9337 	 16.9278 	 -113.259 	 
H 	 -60.9857 	 18.5376 	 -113.324 	 
H 	 -67.0618 	 14.0303 	 -117.738 	 
H 	 -60.3676 	 17.8286 	 -120.317 	 
