34

S 	 -112.607 	 61.9282 	 -73.1889 	 
C 	 -111.698 	 62.4698 	 -71.7217 	 
C 	 -112.478 	 63.1181 	 -70.7962 	 
C 	 -113.814 	 63.0074 	 -71.1879 	 
C 	 -114.016 	 62.4839 	 -72.4827 	 
H 	 -114.7 	 63.3813 	 -70.6622 	 
C 	 -111.963 	 63.7846 	 -69.5208 	 
H 	 -111.525 	 62.9881 	 -68.8785 	 
H 	 -112.927 	 64.131 	 -69.0753 	 
C 	 -110.938 	 64.8973 	 -69.6939 	 
H 	 -110.433 	 65.0688 	 -68.7097 	 
H 	 -110.077 	 64.5873 	 -70.282 	 
C 	 -111.467 	 66.1658 	 -70.4029 	 
H 	 -110.641 	 66.8692 	 -70.5954 	 
H 	 -111.838 	 65.8732 	 -71.3557 	 
H 	 -112.223 	 66.6726 	 -69.8459 	 
S 	 -116.72 	 62.1227 	 -72.0926 	 
C 	 -117.838 	 62.2216 	 -73.4835 	 
C 	 -117.144 	 62.2425 	 -74.7028 	 
C 	 -115.771 	 62.3403 	 -74.4694 	 
C 	 -115.311 	 62.3046 	 -73.1269 	 
H 	 -117.58 	 62.2139 	 -75.6756 	 
C 	 -114.944 	 62.5266 	 -75.7122 	 
H 	 -114.052 	 63.151 	 -75.4954 	 
H 	 -115.544 	 63.1269 	 -76.3994 	 
C 	 -114.543 	 61.3254 	 -76.5807 	 
H 	 -113.824 	 60.7581 	 -76.0013 	 
H 	 -113.947 	 61.7131 	 -77.4238 	 
C 	 -115.679 	 60.4575 	 -77.0723 	 
H 	 -116.27 	 61.0331 	 -77.766 	 
H 	 -116.239 	 59.9901 	 -76.289 	 
H 	 -115.219 	 59.5167 	 -77.4619 	 
H 	 -110.645 	 62.234 	 -71.6144 	 
H 	 -118.957 	 62.1835 	 -73.4109 	 
