34

S 	 -37.9565 	 17.7271 	 14.1463 	 
C 	 -39.3144 	 17.556 	 15.2046 	 
C 	 -39.3966 	 18.5249 	 16.1979 	 
C 	 -38.2316 	 19.402 	 16.1994 	 
C 	 -37.3654 	 19.1532 	 15.1024 	 
H 	 -37.9605 	 20.1799 	 17.0036 	 
C 	 -40.4938 	 18.4848 	 17.199 	 
H 	 -40.2922 	 17.524 	 17.7069 	 
H 	 -41.3811 	 18.4245 	 16.6016 	 
C 	 -40.5816 	 19.666 	 18.2435 	 
H 	 -39.6932 	 19.684 	 18.8846 	 
H 	 -40.5486 	 20.6349 	 17.7746 	 
C 	 -41.8987 	 19.8674 	 19.105 	 
H 	 -42.7942 	 20.3337 	 18.6169 	 
H 	 -42.3229 	 18.9213 	 19.4087 	 
H 	 -41.659 	 20.3329 	 20.0431 	 
S 	 -35.1847 	 19.3848 	 13.4857 	 
C 	 -34.5389 	 20.9296 	 13.1527 	 
C 	 -34.9192 	 21.7911 	 14.1787 	 
C 	 -35.9036 	 21.3064 	 15.0532 	 
C 	 -36.2267 	 19.9875 	 14.7094 	 
H 	 -34.6846 	 22.8398 	 14.1674 	 
C 	 -36.7717 	 22.3346 	 15.8796 	 
H 	 -36.2894 	 22.4957 	 16.8455 	 
H 	 -37.7406 	 21.9749 	 16.1467 	 
C 	 -37.1891 	 23.65 	 15.2152 	 
H 	 -36.2057 	 24.1121 	 14.971 	 
H 	 -37.7854 	 24.2014 	 15.9578 	 
C 	 -37.9759 	 23.5439 	 13.8867 	 
H 	 -37.5195 	 24.054 	 13.0733 	 
H 	 -38.953 	 23.8982 	 13.9717 	 
H 	 -38.0468 	 22.415 	 13.7779 	 
H 	 -39.9235 	 16.6431 	 15.2781 	 
H 	 -33.8332 	 21.1242 	 12.4382 	 
