34

S 	 -45.2579 	 -3.4181 	 -12.1093 	 
C 	 -46.5001 	 -2.6669 	 -11.1041 	 
C 	 -47.1229 	 -1.57994 	 -11.7595 	 
C 	 -46.7343 	 -1.50062 	 -13.143 	 
C 	 -45.8394 	 -2.45824 	 -13.5598 	 
H 	 -47.0137 	 -0.731349 	 -13.8458 	 
C 	 -48.1024 	 -0.574318 	 -11.1557 	 
H 	 -48.209 	 0.337802 	 -11.7618 	 
H 	 -47.5391 	 -0.0740352 	 -10.3562 	 
C 	 -49.4237 	 -1.04918 	 -10.5403 	 
H 	 -49.3812 	 -2.07942 	 -10.2388 	 
H 	 -49.8557 	 -0.385435 	 -9.74784 	 
C 	 -50.4848 	 -1.02291 	 -11.6434 	 
H 	 -50.2113 	 -1.58524 	 -12.5152 	 
H 	 -51.3365 	 -1.4472 	 -11.2728 	 
H 	 -50.8178 	 -0.0672416 	 -11.969 	 
S 	 -43.8359 	 -2.4071 	 -15.4225 	 
C 	 -44.2258 	 -2.46037 	 -17.1093 	 
C 	 -45.4713 	 -3.06722 	 -17.3318 	 
C 	 -46.1518 	 -3.12356 	 -16.0741 	 
C 	 -45.4535 	 -2.70333 	 -14.9304 	 
H 	 -45.8112 	 -3.35588 	 -18.3239 	 
C 	 -47.5773 	 -3.68891 	 -16.132 	 
H 	 -47.5114 	 -4.36574 	 -15.3386 	 
H 	 -47.7382 	 -4.17901 	 -17.0392 	 
C 	 -48.724 	 -2.695 	 -15.895 	 
H 	 -48.6078 	 -2.37465 	 -14.9109 	 
H 	 -49.8182 	 -2.98733 	 -15.6794 	 
C 	 -48.7078 	 -1.39778 	 -16.7566 	 
H 	 -49.4241 	 -0.647368 	 -16.5405 	 
H 	 -48.8442 	 -1.79358 	 -17.8492 	 
H 	 -47.689 	 -0.955844 	 -16.7412 	 
H 	 -46.7437 	 -2.95367 	 -10.0888 	 
H 	 -43.5183 	 -2.25805 	 -17.9376 	 
