34

S 	 -34.7198 	 5.20938 	 4.44145 	 
C 	 -33.8715 	 3.72056 	 3.85948 	 
C 	 -32.5364 	 3.78665 	 4.02033 	 
C 	 -32.1442 	 5.01192 	 4.61217 	 
C 	 -33.2036 	 5.89216 	 4.87091 	 
H 	 -31.2038 	 5.40892 	 4.92 	 
C 	 -31.4692 	 2.70194 	 3.62889 	 
H 	 -31.1259 	 2.79514 	 2.59966 	 
H 	 -31.9495 	 1.73005 	 3.56153 	 
C 	 -30.1911 	 2.56544 	 4.56539 	 
H 	 -29.6138 	 3.47284 	 4.58862 	 
H 	 -30.5186 	 2.5967 	 5.65478 	 
C 	 -29.2409 	 1.40397 	 4.16438 	 
H 	 -28.6838 	 1.7088 	 3.37559 	 
H 	 -28.5547 	 1.24079 	 4.94 	 
H 	 -29.7523 	 0.55308 	 3.84852 	 
S 	 -32.8638 	 8.48154 	 4.21565 	 
C 	 -32.8396 	 9.64126 	 5.51502 	 
C 	 -33.0569 	 9.03623 	 6.73361 	 
C 	 -33.1737 	 7.65052 	 6.68637 	 
C 	 -33.0673 	 7.2272 	 5.39272 	 
H 	 -33.3158 	 9.70152 	 7.53428 	 
C 	 -33.4308 	 6.79759 	 7.88616 	 
H 	 -33.1781 	 5.81733 	 7.49731 	 
H 	 -34.5131 	 6.75652 	 8.15817 	 
C 	 -32.5299 	 7.09126 	 9.08811 	 
H 	 -32.73 	 6.47498 	 9.95304 	 
H 	 -32.6809 	 8.07185 	 9.41915 	 
C 	 -31.0743 	 6.8741 	 8.9232 	 
H 	 -30.4831 	 7.06774 	 9.83046 	 
H 	 -30.703 	 7.46449 	 8.15699 	 
H 	 -31.0796 	 5.80343 	 8.61396 	 
H 	 -34.3945 	 2.97268 	 3.23465 	 
H 	 -32.9172 	 10.7128 	 5.4192 	 
