34

S 	 -100.874 	 38.5985 	 -89.4761 	 
C 	 -101.232 	 37.5147 	 -88.1487 	 
C 	 -101.121 	 38.1081 	 -86.9293 	 
C 	 -100.659 	 39.4889 	 -87.0821 	 
C 	 -100.506 	 39.8937 	 -88.3554 	 
H 	 -100.482 	 40.1048 	 -86.1894 	 
C 	 -101.461 	 37.49 	 -85.5908 	 
H 	 -101.937 	 36.5106 	 -85.7883 	 
H 	 -102.215 	 38.2154 	 -85.1514 	 
C 	 -100.217 	 37.2248 	 -84.7126 	 
H 	 -99.6038 	 38.0981 	 -84.6079 	 
H 	 -100.481 	 36.932 	 -83.7402 	 
C 	 -99.3078 	 36.1608 	 -85.3323 	 
H 	 -99.8572 	 35.2766 	 -85.3976 	 
H 	 -99.1576 	 36.4046 	 -86.4214 	 
H 	 -98.4014 	 35.9294 	 -84.7343 	 
S 	 -99.5189 	 41.6881 	 -90.3173 	 
C 	 -99.565 	 43.3908 	 -90.0741 	 
C 	 -100.161 	 43.6593 	 -88.8641 	 
C 	 -100.645 	 42.4991 	 -88.1673 	 
C 	 -100.333 	 41.3087 	 -88.7311 	 
H 	 -100.189 	 44.726 	 -88.5545 	 
C 	 -101.571 	 42.7728 	 -87.0078 	 
H 	 -100.987 	 43.2216 	 -86.1986 	 
H 	 -101.948 	 41.8652 	 -86.6388 	 
C 	 -102.889 	 43.5291 	 -87.2505 	 
H 	 -103.381 	 43.0117 	 -88.1569 	 
H 	 -102.721 	 44.5602 	 -87.593 	 
C 	 -103.814 	 43.5841 	 -86.0155 	 
H 	 -104.067 	 42.5267 	 -85.6262 	 
H 	 -104.798 	 44.0136 	 -86.2713 	 
H 	 -103.298 	 44.1891 	 -85.2378 	 
H 	 -101.448 	 36.444 	 -88.2319 	 
H 	 -99.1659 	 44.0646 	 -90.7856 	 
