34

S 	 -0.711129 	 -25.3457 	 -106.27 	 
C 	 0.191612 	 -25.083 	 -107.7 	 
C 	 -0.573793 	 -24.5576 	 -108.734 	 
C 	 -1.93998 	 -24.3334 	 -108.304 	 
C 	 -2.19204 	 -24.7427 	 -107.017 	 
H 	 -2.76268 	 -23.9989 	 -108.992 	 
C 	 -0.0105982 	 -24.2544 	 -110.107 	 
H 	 0.986841 	 -24.706 	 -110.23 	 
H 	 0.089666 	 -23.1449 	 -110.128 	 
C 	 -0.947388 	 -24.6789 	 -111.26 	 
H 	 -1.18843 	 -25.7114 	 -111.096 	 
H 	 -1.81957 	 -24.1224 	 -111.136 	 
C 	 -0.243204 	 -24.5217 	 -112.608 	 
H 	 0.586526 	 -25.1822 	 -112.903 	 
H 	 -0.980983 	 -24.856 	 -113.417 	 
H 	 -0.0488433 	 -23.4761 	 -112.851 	 
S 	 -3.2601 	 -24.2093 	 -104.529 	 
C 	 -4.9963 	 -24.3241 	 -104.258 	 
C 	 -5.62026 	 -24.5881 	 -105.439 	 
C 	 -4.73945 	 -24.7074 	 -106.58 	 
C 	 -3.40003 	 -24.5749 	 -106.268 	 
H 	 -6.71673 	 -24.7405 	 -105.552 	 
C 	 -5.28401 	 -25.0066 	 -107.959 	 
H 	 -4.93463 	 -24.3622 	 -108.77 	 
H 	 -6.34891 	 -24.7785 	 -107.789 	 
C 	 -5.17004 	 -26.4666 	 -108.45 	 
H 	 -4.13773 	 -26.5006 	 -108.697 	 
H 	 -5.8014 	 -26.5452 	 -109.4 	 
C 	 -5.46505 	 -27.5973 	 -107.47 	 
H 	 -6.56048 	 -27.7205 	 -107.212 	 
H 	 -5.02393 	 -27.3671 	 -106.471 	 
H 	 -5.11778 	 -28.6843 	 -107.634 	 
H 	 1.23464 	 -25.1517 	 -107.899 	 
H 	 -5.49988 	 -24.1736 	 -103.342 	 
