34

S 	 15.9703 	 -11.3655 	 -127.926 	 
C 	 14.6703 	 -12.4257 	 -128.185 	 
C 	 14.5142 	 -13.3133 	 -127.124 	 
C 	 15.439 	 -13.094 	 -126.065 	 
C 	 16.2736 	 -12.0111 	 -126.371 	 
H 	 15.5603 	 -13.4521 	 -125.08 	 
C 	 13.351 	 -14.3041 	 -127.036 	 
H 	 13.7771 	 -15.3184 	 -127.067 	 
H 	 12.8877 	 -14.2522 	 -128.031 	 
C 	 12.3863 	 -14.297 	 -125.865 	 
H 	 11.7618 	 -15.2087 	 -125.916 	 
H 	 12.8769 	 -14.3006 	 -124.95 	 
C 	 11.4821 	 -13.0732 	 -125.837 	 
H 	 10.7699 	 -12.9146 	 -126.608 	 
H 	 10.9641 	 -13.0494 	 -124.85 	 
H 	 12.0777 	 -12.1079 	 -125.843 	 
S 	 18.9414 	 -11.3333 	 -126.187 	 
C 	 19.5291 	 -10.6282 	 -124.766 	 
C 	 18.6335 	 -10.6936 	 -123.745 	 
C 	 17.3633 	 -11.1018 	 -124.19 	 
C 	 17.3337 	 -11.467 	 -125.531 	 
H 	 19.0803 	 -10.4018 	 -122.785 	 
C 	 16.2229 	 -11.1656 	 -123.23 	 
H 	 15.4198 	 -11.7238 	 -123.625 	 
H 	 15.9619 	 -10.097 	 -123.145 	 
C 	 16.5083 	 -11.688 	 -121.787 	 
H 	 15.7379 	 -11.2011 	 -121.181 	 
H 	 17.4429 	 -11.2746 	 -121.407 	 
C 	 16.5602 	 -13.1601 	 -121.503 	 
H 	 17.2323 	 -13.7488 	 -122.21 	 
H 	 15.5723 	 -13.6703 	 -121.517 	 
H 	 16.8399 	 -13.3189 	 -120.509 	 
H 	 14.2553 	 -12.6409 	 -129.192 	 
H 	 20.4854 	 -10.2991 	 -124.606 	 
