34

S 	 -132.429 	 10.8063 	 -6.89665 	 
C 	 -130.762 	 10.6118 	 -6.32259 	 
C 	 -129.892 	 10.5919 	 -7.37148 	 
C 	 -130.57 	 10.6737 	 -8.6612 	 
C 	 -131.94 	 10.7015 	 -8.54389 	 
H 	 -130.134 	 10.653 	 -9.64844 	 
C 	 -128.381 	 10.4045 	 -7.3335 	 
H 	 -128.188 	 9.3171 	 -7.34474 	 
H 	 -127.996 	 10.767 	 -6.38364 	 
C 	 -127.525 	 10.8873 	 -8.48943 	 
H 	 -126.483 	 10.6271 	 -8.21135 	 
H 	 -127.772 	 10.3323 	 -9.38135 	 
C 	 -127.391 	 12.3763 	 -8.71799 	 
H 	 -126.947 	 12.7976 	 -7.84045 	 
H 	 -126.712 	 12.6018 	 -9.62301 	 
H 	 -128.337 	 12.9397 	 -8.8674 	 
S 	 -133.653 	 12.3656 	 -9.61779 	 
C 	 -134.371 	 12.0147 	 -11.1743 	 
C 	 -134.031 	 10.7633 	 -11.6917 	 
C 	 -133.061 	 10.1628 	 -10.8151 	 
C 	 -132.827 	 10.881 	 -9.65293 	 
H 	 -134.35 	 10.3431 	 -12.6754 	 
C 	 -132.373 	 8.84617 	 -11.2127 	 
H 	 -133.098 	 8.27627 	 -11.7928 	 
H 	 -132.19 	 8.3687 	 -10.2755 	 
C 	 -131.2 	 8.92126 	 -12.1567 	 
H 	 -130.686 	 9.76107 	 -11.8651 	 
H 	 -131.636 	 9.08821 	 -13.1286 	 
C 	 -130.317 	 7.69932 	 -12.0543 	 
H 	 -129.942 	 7.69964 	 -10.9964 	 
H 	 -129.524 	 7.78336 	 -12.7402 	 
H 	 -130.856 	 6.77286 	 -12.1942 	 
H 	 -130.49 	 10.4453 	 -5.34348 	 
H 	 -134.923 	 12.74 	 -11.6752 	 
