34

S 	 -68.1025 	 6.48791 	 17.6905 	 
C 	 -67.1451 	 7.82903 	 18.0334 	 
C 	 -65.9314 	 7.45996 	 18.651 	 
C 	 -65.8107 	 6.10147 	 18.7786 	 
C 	 -66.8997 	 5.36211 	 18.3135 	 
H 	 -65.042 	 5.44573 	 19.1178 	 
C 	 -64.8411 	 8.3924 	 19.1604 	 
H 	 -65.061 	 9.41659 	 18.8627 	 
H 	 -63.8957 	 8.17003 	 18.7316 	 
C 	 -64.6211 	 8.38875 	 20.7135 	 
H 	 -65.5793 	 8.40791 	 21.1373 	 
H 	 -64.2524 	 7.41619 	 20.9838 	 
C 	 -63.6357 	 9.41133 	 21.2907 	 
H 	 -63.3205 	 9.11197 	 22.2626 	 
H 	 -62.7192 	 9.47584 	 20.7002 	 
H 	 -63.9796 	 10.432 	 21.3659 	 
S 	 -68.4929 	 3.52236 	 19.4285 	 
C 	 -68.2111 	 1.79989 	 19.223 	 
C 	 -66.9439 	 1.60973 	 18.6718 	 
C 	 -66.3177 	 2.85379 	 18.2929 	 
C 	 -67.1172 	 3.91184 	 18.5162 	 
H 	 -66.5297 	 0.571721 	 18.6948 	 
C 	 -64.8932 	 2.7522 	 17.7602 	 
H 	 -64.3343 	 3.66707 	 17.3841 	 
H 	 -64.9106 	 2.1143 	 16.9109 	 
C 	 -63.9428 	 1.95631 	 18.7798 	 
H 	 -64.3618 	 1.07505 	 19.2136 	 
H 	 -63.6735 	 2.61359 	 19.595 	 
C 	 -62.5893 	 1.63356 	 18.1212 	 
H 	 -62.7475 	 0.918916 	 17.2494 	 
H 	 -61.9067 	 1.20677 	 18.8095 	 
H 	 -62.2136 	 2.65243 	 17.8421 	 
H 	 -67.492 	 8.91523 	 17.849 	 
H 	 -68.814 	 1.0441 	 19.6982 	 
