34

S 	 -49.7629 	 10.8033 	 -19.2733 	 
C 	 -50.9736 	 10.6148 	 -17.9216 	 
C 	 -50.8843 	 11.6914 	 -17.0479 	 
C 	 -49.9723 	 12.7272 	 -17.5183 	 
C 	 -49.3369 	 12.447 	 -18.6907 	 
H 	 -49.769 	 13.6398 	 -16.9783 	 
C 	 -51.7516 	 11.9781 	 -15.8327 	 
H 	 -52.2593 	 11.0844 	 -15.4724 	 
H 	 -52.339 	 12.846 	 -16.0936 	 
C 	 -50.9846 	 12.3692 	 -14.5429 	 
H 	 -50.3854 	 11.5451 	 -14.2419 	 
H 	 -50.2985 	 13.2119 	 -14.7329 	 
C 	 -51.8266 	 12.6765 	 -13.3383 	 
H 	 -52.338 	 13.6643 	 -13.2899 	 
H 	 -52.6069 	 11.9522 	 -13.195 	 
H 	 -51.1533 	 12.6719 	 -12.4661 	 
S 	 -48.8645 	 13.8966 	 -21.0933 	 
C 	 -47.2631 	 14.4551 	 -21.3785 	 
C 	 -46.5706 	 14.5409 	 -20.1738 	 
C 	 -47.2081 	 13.8603 	 -19.0991 	 
C 	 -48.3872 	 13.2954 	 -19.4827 	 
H 	 -45.6075 	 14.9976 	 -20.1701 	 
C 	 -46.5809 	 13.577 	 -17.7645 	 
H 	 -47.3523 	 13.1357 	 -17.1332 	 
H 	 -46.2621 	 14.5211 	 -17.2752 	 
C 	 -45.4583 	 12.5076 	 -17.8134 	 
H 	 -44.7479 	 12.9581 	 -18.4819 	 
H 	 -45.754 	 11.5946 	 -18.2752 	 
C 	 -44.833 	 12.0757 	 -16.4003 	 
H 	 -45.3327 	 11.2838 	 -15.8867 	 
H 	 -44.5169 	 12.7957 	 -15.5908 	 
H 	 -43.8917 	 11.5222 	 -16.535 	 
H 	 -51.5967 	 9.75251 	 -17.7794 	 
H 	 -47.0724 	 15.0529 	 -22.2979 	 
