34

S 	 -102.963 	 -1.97996 	 -107.634 	 
C 	 -103.952 	 -2.17548 	 -106.185 	 
C 	 -103.962 	 -1.02751 	 -105.408 	 
C 	 -103.39 	 0.0939064 	 -106.072 	 
C 	 -102.822 	 -0.165944 	 -107.338 	 
H 	 -103.467 	 1.15589 	 -105.78 	 
C 	 -104.736 	 -0.944682 	 -104.08 	 
H 	 -104.426 	 -0.0782185 	 -103.587 	 
H 	 -104.396 	 -1.78087 	 -103.46 	 
C 	 -106.211 	 -1.01025 	 -104.319 	 
H 	 -106.484 	 -0.458345 	 -105.271 	 
H 	 -106.623 	 -2.02539 	 -104.396 	 
C 	 -107.032 	 -0.349963 	 -103.12 	 
H 	 -108.104 	 -0.287171 	 -103.332 	 
H 	 -106.92 	 -0.963534 	 -102.25 	 
H 	 -106.63 	 0.678307 	 -102.95 	 
S 	 -103.068 	 1.0035 	 -109.857 	 
C 	 -101.696 	 1.93845 	 -110.489 	 
C 	 -100.793 	 2.14012 	 -109.479 	 
C 	 -101.049 	 1.49208 	 -108.247 	 
C 	 -102.305 	 0.821791 	 -108.29 	 
H 	 -99.8908 	 2.69167 	 -109.68 	 
C 	 -100.097 	 1.62043 	 -107.043 	 
H 	 -99.7814 	 0.65865 	 -106.634 	 
H 	 -100.72 	 2.10938 	 -106.306 	 
C 	 -98.8686 	 2.46734 	 -107.298 	 
H 	 -99.2612 	 3.50784 	 -107.53 	 
H 	 -98.3698 	 2.04546 	 -108.178 	 
C 	 -97.9026 	 2.5196 	 -106.084 	 
H 	 -96.9631 	 3.12195 	 -106.251 	 
H 	 -97.4123 	 1.56947 	 -105.85 	 
H 	 -98.456 	 2.82882 	 -105.227 	 
H 	 -104.623 	 -3.00141 	 -106.078 	 
H 	 -101.689 	 2.25356 	 -111.489 	 
