34

S 	 -133.838 	 58.6219 	 -62.5387 	 
C 	 -133.959 	 59.9107 	 -63.7098 	 
C 	 -133.171 	 59.6547 	 -64.8302 	 
C 	 -132.462 	 58.3914 	 -64.7556 	 
C 	 -132.732 	 57.6848 	 -63.5606 	 
H 	 -131.79 	 57.9538 	 -65.4888 	 
C 	 -133.06 	 60.5569 	 -66.1094 	 
H 	 -133.954 	 61.1741 	 -66.2271 	 
H 	 -133.096 	 59.8402 	 -66.9576 	 
C 	 -131.872 	 61.468 	 -66.1147 	 
H 	 -131.687 	 61.97 	 -65.1437 	 
H 	 -131.064 	 60.7664 	 -66.2894 	 
C 	 -132.034 	 62.6042 	 -67.1647 	 
H 	 -133.004 	 63.0876 	 -67.0171 	 
H 	 -131.205 	 63.2945 	 -67.2313 	 
H 	 -131.97 	 62.2213 	 -68.1527 	 
S 	 -133.447 	 55.4335 	 -62.0879 	 
C 	 -132.306 	 54.1545 	 -61.9011 	 
C 	 -131.128 	 54.3854 	 -62.5888 	 
C 	 -131.089 	 55.7122 	 -63.1831 	 
C 	 -132.322 	 56.3434 	 -63.1697 	 
H 	 -130.345 	 53.7217 	 -62.5925 	 
C 	 -129.742 	 56.3301 	 -63.7024 	 
H 	 -129.512 	 57.2135 	 -63.1881 	 
H 	 -129.833 	 56.7151 	 -64.7837 	 
C 	 -128.396 	 55.5324 	 -63.4356 	 
H 	 -128.51 	 54.4226 	 -63.2931 	 
H 	 -128.041 	 55.7163 	 -62.4615 	 
C 	 -127.299 	 55.7619 	 -64.4578 	 
H 	 -127.067 	 56.8171 	 -64.5195 	 
H 	 -127.44 	 55.338 	 -65.4363 	 
H 	 -126.317 	 55.3266 	 -64.2467 	 
H 	 -134.526 	 60.8048 	 -63.5248 	 
H 	 -132.429 	 53.3957 	 -61.1847 	 
