34

S 	 -143.951 	 8.68725 	 -7.29786 	 
C 	 -144.036 	 10.2353 	 -6.48991 	 
C 	 -143.816 	 10.111 	 -5.1554 	 
C 	 -143.578 	 8.78175 	 -4.74772 	 
C 	 -143.326 	 7.9063 	 -5.77853 	 
H 	 -143.524 	 8.44132 	 -3.72984 	 
C 	 -143.891 	 11.2771 	 -4.1657 	 
H 	 -143.716 	 12.2825 	 -4.61855 	 
H 	 -143.154 	 11.1871 	 -3.41719 	 
C 	 -145.327 	 11.3742 	 -3.60528 	 
H 	 -146.03 	 11.5998 	 -4.38677 	 
H 	 -145.523 	 10.3409 	 -3.19638 	 
C 	 -145.423 	 12.359 	 -2.37686 	 
H 	 -144.702 	 12.1944 	 -1.58099 	 
H 	 -145.268 	 13.3686 	 -2.86462 	 
H 	 -146.446 	 12.4792 	 -1.9448 	 
S 	 -143.708 	 5.27768 	 -6.28686 	 
C 	 -142.5 	 4.11211 	 -5.7312 	 
C 	 -141.486 	 4.67259 	 -5.0095 	 
C 	 -141.521 	 6.16721 	 -5.03507 	 
C 	 -142.664 	 6.61291 	 -5.69719 	 
H 	 -140.78 	 4.07238 	 -4.48246 	 
C 	 -140.496 	 6.98384 	 -4.32645 	 
H 	 -140.414 	 6.56163 	 -3.32223 	 
H 	 -140.76 	 7.98893 	 -4.26192 	 
C 	 -139.026 	 6.82752 	 -4.86029 	 
H 	 -138.696 	 5.77937 	 -4.86039 	 
H 	 -138.225 	 7.32953 	 -4.37547 	 
C 	 -138.964 	 7.52734 	 -6.25379 	 
H 	 -139.848 	 7.12326 	 -6.84545 	 
H 	 -138.131 	 7.34383 	 -6.95552 	 
H 	 -139.15 	 8.65844 	 -6.23655 	 
H 	 -144.19 	 11.1686 	 -7.0146 	 
H 	 -142.63 	 3.06956 	 -5.90573 	 
