34

S 	 -43.6414 	 15.0376 	 27.1146 	 
C 	 -45.2885 	 14.5182 	 27.3984 	 
C 	 -46.0019 	 15.4704 	 28.0607 	 
C 	 -45.2782 	 16.6955 	 28.2205 	 
C 	 -44.0822 	 16.6944 	 27.5777 	 
H 	 -45.755 	 17.551 	 28.6207 	 
C 	 -47.4644 	 15.2816 	 28.4384 	 
H 	 -47.7025 	 16.1321 	 29.0305 	 
H 	 -47.4742 	 14.4162 	 29.1196 	 
C 	 -48.3601 	 14.8945 	 27.3386 	 
H 	 -48.5288 	 15.8753 	 26.8442 	 
H 	 -47.8625 	 14.3079 	 26.6057 	 
C 	 -49.6537 	 14.1323 	 27.6881 	 
H 	 -50.1899 	 14.771 	 28.3831 	 
H 	 -50.337 	 14.0763 	 26.8527 	 
H 	 -49.638 	 13.0998 	 27.9905 	 
S 	 -41.4646 	 17.2106 	 27.8668 	 
C 	 -40.9514 	 18.9154 	 28.0803 	 
C 	 -41.9688 	 19.7942 	 27.8491 	 
C 	 -43.201 	 19.1626 	 27.5411 	 
C 	 -43.1279 	 17.7578 	 27.6114 	 
H 	 -41.716 	 20.8309 	 27.7996 	 
C 	 -44.4645 	 19.959 	 27.2632 	 
H 	 -44.9602 	 20.1178 	 28.2429 	 
H 	 -45.2483 	 19.4241 	 26.7551 	 
C 	 -44.237 	 21.3675 	 26.6814 	 
H 	 -43.5746 	 21.9853 	 27.4026 	 
H 	 -45.2786 	 21.8179 	 26.7363 	 
C 	 -43.5978 	 21.3876 	 25.306 	 
H 	 -42.618 	 21.0045 	 25.239 	 
H 	 -43.61 	 22.4288 	 25.0604 	 
H 	 -44.3466 	 20.9026 	 24.5508 	 
H 	 -45.7467 	 13.5803 	 27.353 	 
H 	 -39.918 	 19.2402 	 28.3289 	 
