34

S 	 41.791 	 -20.0015 	 -112.716 	 
C 	 43.4355 	 -20.1259 	 -113.211 	 
C 	 44.3297 	 -19.7102 	 -112.289 	 
C 	 43.6844 	 -19.4895 	 -111.036 	 
C 	 42.3092 	 -19.6271 	 -111.032 	 
H 	 44.0866 	 -19.0657 	 -110.164 	 
C 	 45.877 	 -19.6117 	 -112.432 	 
H 	 46.0246 	 -18.7304 	 -113.008 	 
H 	 46.3443 	 -20.5316 	 -112.941 	 
C 	 46.7188 	 -19.3758 	 -111.181 	 
H 	 47.7572 	 -19.1984 	 -111.495 	 
H 	 46.3816 	 -18.499 	 -110.574 	 
C 	 46.9001 	 -20.6093 	 -110.347 	 
H 	 45.9824 	 -21.0021 	 -109.989 	 
H 	 47.3709 	 -21.367 	 -110.978 	 
H 	 47.5249 	 -20.4037 	 -109.484 	 
S 	 39.8851 	 -18.6298 	 -110.311 	 
C 	 39.5615 	 -18.5044 	 -108.586 	 
C 	 40.4821 	 -19.1662 	 -107.789 	 
C 	 41.5146 	 -19.7775 	 -108.574 	 
C 	 41.3897 	 -19.4584 	 -109.928 	 
H 	 40.4332 	 -19.0975 	 -106.733 	 
C 	 42.6724 	 -20.4732 	 -108.001 	 
H 	 43.5009 	 -19.7926 	 -108.165 	 
H 	 42.6999 	 -21.3623 	 -108.646 	 
C 	 42.7001 	 -21.0153 	 -106.526 	 
H 	 41.8899 	 -21.674 	 -106.265 	 
H 	 42.5739 	 -20.1701 	 -105.824 	 
C 	 44.0089 	 -21.8115 	 -106.27 	 
H 	 44.798 	 -21.0761 	 -106.49 	 
H 	 44.0081 	 -22.7871 	 -106.806 	 
H 	 44.1391 	 -22.0915 	 -105.194 	 
H 	 43.7779 	 -20.398 	 -114.239 	 
H 	 38.8148 	 -17.7869 	 -108.164 	 
