34

S 	 -106.413 	 41.5656 	 -12.7205 	 
C 	 -105.823 	 43.1116 	 -12.0918 	 
C 	 -106.861 	 43.8583 	 -11.6229 	 
C 	 -108.092 	 43.3218 	 -12.0401 	 
C 	 -108.086 	 42.0498 	 -12.5865 	 
H 	 -109.081 	 43.7351 	 -11.8589 	 
C 	 -106.64 	 45.1047 	 -10.8391 	 
H 	 -105.886 	 45.0474 	 -10.0417 	 
H 	 -107.464 	 45.2959 	 -10.181 	 
C 	 -106.343 	 46.3398 	 -11.733 	 
H 	 -106.056 	 47.0858 	 -10.9422 	 
H 	 -105.521 	 46.1556 	 -12.4102 	 
C 	 -107.66 	 46.8255 	 -12.4823 	 
H 	 -107.425 	 47.7231 	 -13.1382 	 
H 	 -108.069 	 46.0482 	 -13.1167 	 
H 	 -108.338 	 47.0894 	 -11.7485 	 
S 	 -109.103 	 40.3934 	 -14.5655 	 
C 	 -110.725 	 39.7742 	 -14.4113 	 
C 	 -111.333 	 40.217 	 -13.2784 	 
C 	 -110.498 	 41.1139 	 -12.4835 	 
C 	 -109.224 	 41.2792 	 -12.9663 	 
H 	 -112.395 	 39.8985 	 -13.0839 	 
C 	 -111.122 	 41.7 	 -11.1962 	 
H 	 -110.279 	 42.1615 	 -10.5788 	 
H 	 -111.649 	 40.9818 	 -10.588 	 
C 	 -112.049 	 42.9132 	 -11.4141 	 
H 	 -112.863 	 42.4814 	 -12.0835 	 
H 	 -111.553 	 43.7411 	 -11.9954 	 
C 	 -112.589 	 43.4277 	 -9.97733 	 
H 	 -113.094 	 42.5921 	 -9.5165 	 
H 	 -113.333 	 44.1905 	 -10.041 	 
H 	 -111.813 	 43.8986 	 -9.34376 	 
H 	 -104.772 	 43.3191 	 -11.9443 	 
H 	 -111.176 	 39.0614 	 -15.1144 	 
