34

S 	 -114.424 	 36.4771 	 -122.276 	 
C 	 -114.586 	 34.8261 	 -121.854 	 
C 	 -115.895 	 34.3613 	 -121.883 	 
C 	 -116.708 	 35.3795 	 -122.449 	 
C 	 -116.14 	 36.5928 	 -122.578 	 
H 	 -117.771 	 35.26 	 -122.668 	 
C 	 -116.361 	 32.9179 	 -121.753 	 
H 	 -115.554 	 32.2647 	 -122.082 	 
H 	 -117.049 	 32.7464 	 -122.615 	 
C 	 -116.945 	 32.4133 	 -120.48 	 
H 	 -116.65 	 31.3654 	 -120.358 	 
H 	 -116.352 	 32.9074 	 -119.617 	 
C 	 -118.442 	 32.631 	 -120.315 	 
H 	 -118.918 	 32.4603 	 -119.306 	 
H 	 -118.685 	 33.6721 	 -120.432 	 
H 	 -119.073 	 32.1678 	 -121.168 	 
S 	 -116.06 	 38.2332 	 -124.659 	 
C 	 -117.149 	 39.6281 	 -124.741 	 
C 	 -117.794 	 39.8155 	 -123.564 	 
C 	 -117.572 	 38.7871 	 -122.563 	 
C 	 -116.69 	 37.8431 	 -123.122 	 
H 	 -118.496 	 40.6413 	 -123.466 	 
C 	 -118.314 	 38.8457 	 -121.166 	 
H 	 -118.35 	 39.8228 	 -120.837 	 
H 	 -117.762 	 38.364 	 -120.362 	 
C 	 -119.82 	 38.3344 	 -121.078 	 
H 	 -120.228 	 38.6345 	 -120.088 	 
H 	 -119.88 	 37.2356 	 -121.078 	 
C 	 -120.769 	 38.9008 	 -122.145 	 
H 	 -120.858 	 39.9937 	 -122.039 	 
H 	 -121.676 	 38.3727 	 -122.076 	 
H 	 -120.313 	 38.774 	 -123.136 	 
H 	 -113.757 	 34.3231 	 -121.49 	 
H 	 -117.245 	 40.3344 	 -125.524 	 
