34

S 	 -106.965 	 48.4628 	 -97.1375 	 
C 	 -107.476 	 50.1274 	 -96.9256 	 
C 	 -107.372 	 50.8588 	 -98.0653 	 
C 	 -106.902 	 50.0509 	 -99.1638 	 
C 	 -106.589 	 48.7863 	 -98.8045 	 
H 	 -106.842 	 50.3547 	 -100.207 	 
C 	 -107.931 	 52.2462 	 -98.2382 	 
H 	 -107.258 	 52.8637 	 -98.8825 	 
H 	 -107.961 	 52.8633 	 -97.3301 	 
C 	 -109.294 	 52.3477 	 -98.9047 	 
H 	 -109.41 	 53.3893 	 -99.2715 	 
H 	 -109.291 	 51.7955 	 -99.8147 	 
C 	 -110.543 	 51.9496 	 -98.0553 	 
H 	 -110.511 	 50.8869 	 -97.9277 	 
H 	 -110.561 	 52.3479 	 -97.0245 	 
H 	 -111.385 	 52.3285 	 -98.577 	 
S 	 -107.531 	 46.4768 	 -99.8158 	 
C 	 -106.603 	 45.6061 	 -100.936 	 
C 	 -105.387 	 46.2427 	 -101.229 	 
C 	 -105.206 	 47.5034 	 -100.595 	 
C 	 -106.256 	 47.6468 	 -99.6445 	 
H 	 -104.662 	 45.7471 	 -101.899 	 
C 	 -104.271 	 48.5493 	 -101.019 	 
H 	 -104.808 	 49.4883 	 -100.998 	 
H 	 -104.255 	 48.2974 	 -102.069 	 
C 	 -102.843 	 48.5037 	 -100.411 	 
H 	 -102.513 	 47.4695 	 -100.418 	 
H 	 -102.812 	 48.8127 	 -99.322 	 
C 	 -101.891 	 49.4175 	 -101.279 	 
H 	 -101.267 	 50.0124 	 -100.614 	 
H 	 -102.425 	 50.2153 	 -101.797 	 
H 	 -101.265 	 48.8056 	 -101.91 	 
H 	 -107.609 	 50.4658 	 -95.9294 	 
H 	 -106.81 	 44.6718 	 -101.337 	 
