34

S 	 -40.1624 	 -10.2844 	 14.4516 	 
C 	 -41.6522 	 -9.91873 	 15.403 	 
C 	 -41.3557 	 -9.85346 	 16.7849 	 
C 	 -39.9336 	 -9.97262 	 17.0774 	 
C 	 -39.2117 	 -10.2475 	 15.9777 	 
H 	 -39.553 	 -9.84362 	 18.0453 	 
C 	 -42.37 	 -9.71893 	 17.8963 	 
H 	 -41.7262 	 -9.77091 	 18.763 	 
H 	 -43.0793 	 -10.5422 	 17.8923 	 
C 	 -43.2512 	 -8.48314 	 17.8365 	 
H 	 -42.6729 	 -7.58947 	 17.5517 	 
H 	 -43.9433 	 -8.53426 	 16.9873 	 
C 	 -44.0272 	 -8.41238 	 19.105 	 
H 	 -44.8561 	 -7.71615 	 19.0665 	 
H 	 -44.449 	 -9.30925 	 19.443 	 
H 	 -43.3507 	 -8.07718 	 19.8768 	 
S 	 -37.2065 	 -11.7193 	 17.141 	 
C 	 -35.6537 	 -11.8192 	 16.3499 	 
C 	 -35.5677 	 -10.9324 	 15.3265 	 
C 	 -36.7516 	 -10.2225 	 14.9976 	 
C 	 -37.7902 	 -10.6231 	 15.8828 	 
H 	 -34.6594 	 -10.848 	 14.7784 	 
C 	 -36.9535 	 -9.24355 	 13.7909 	 
H 	 -37.8418 	 -8.66087 	 13.9419 	 
H 	 -37.1949 	 -9.6919 	 12.8295 	 
C 	 -35.8102 	 -8.23065 	 13.5896 	 
H 	 -35.9421 	 -7.54858 	 12.7133 	 
H 	 -34.9118 	 -8.7091 	 13.2545 	 
C 	 -35.6564 	 -7.28897 	 14.8464 	 
H 	 -35.7593 	 -7.81025 	 15.8267 	 
H 	 -36.4615 	 -6.54917 	 14.7376 	 
H 	 -34.7163 	 -6.71553 	 14.8031 	 
H 	 -42.6942 	 -9.66311 	 15.0373 	 
H 	 -34.8496 	 -12.4514 	 16.624 	 
