34

S 	 -102.893 	 11.5469 	 -7.3352 	 
C 	 -102.903 	 13.286 	 -7.22316 	 
C 	 -104.214 	 13.8218 	 -6.99469 	 
C 	 -105.152 	 12.7694 	 -6.89914 	 
C 	 -104.677 	 11.4956 	 -7.11492 	 
H 	 -106.239 	 12.954 	 -6.66138 	 
C 	 -104.562 	 15.2935 	 -6.64906 	 
H 	 -105.598 	 15.3982 	 -6.31212 	 
H 	 -104.438 	 15.9091 	 -7.5239 	 
C 	 -103.557 	 15.9468 	 -5.67631 	 
H 	 -102.575 	 15.5763 	 -5.98247 	 
H 	 -103.653 	 17.0456 	 -5.76682 	 
C 	 -103.716 	 15.4653 	 -4.18284 	 
H 	 -103.465 	 14.4224 	 -4.011 	 
H 	 -103.053 	 16.0882 	 -3.60306 	 
H 	 -104.694 	 15.6217 	 -3.70421 	 
S 	 -105.477 	 9.3659 	 -8.55907 	 
C 	 -106.767 	 8.42844 	 -7.90699 	 
C 	 -107.248 	 8.78036 	 -6.63064 	 
C 	 -106.386 	 9.85283 	 -6.13658 	 
C 	 -105.421 	 10.286 	 -7.04465 	 
H 	 -108.181 	 8.4675 	 -6.17492 	 
C 	 -106.589 	 10.5518 	 -4.74898 	 
H 	 -107.557 	 10.0947 	 -4.48404 	 
H 	 -106.806 	 11.6626 	 -4.73587 	 
C 	 -105.484 	 10.1814 	 -3.74441 	 
H 	 -104.571 	 10.5488 	 -4.10039 	 
H 	 -105.465 	 9.12485 	 -3.6211 	 
C 	 -105.59 	 10.8428 	 -2.34043 	 
H 	 -106.572 	 10.6418 	 -1.95855 	 
H 	 -105.536 	 11.9786 	 -2.3478 	 
H 	 -104.84 	 10.5825 	 -1.61745 	 
H 	 -102.056 	 13.8917 	 -7.23791 	 
H 	 -107.278 	 7.712 	 -8.53296 	 
