34

S 	 -56.6851 	 13.7254 	 -92.4074 	 
C 	 -55.1665 	 12.9673 	 -92.6834 	 
C 	 -54.1146 	 13.8869 	 -92.6112 	 
C 	 -54.5318 	 15.222 	 -92.4696 	 
C 	 -55.8938 	 15.3012 	 -92.4296 	 
H 	 -53.8579 	 16.0409 	 -92.2973 	 
C 	 -52.6461 	 13.5003 	 -92.6172 	 
H 	 -52.2353 	 13.4727 	 -93.6943 	 
H 	 -52.6107 	 12.452 	 -92.2791 	 
C 	 -51.7119 	 14.4288 	 -91.8991 	 
H 	 -51.657 	 15.4408 	 -92.3666 	 
H 	 -51.9425 	 14.5323 	 -90.8651 	 
C 	 -50.2873 	 13.8565 	 -91.9037 	 
H 	 -49.8085 	 13.9766 	 -92.856 	 
H 	 -49.5991 	 14.3266 	 -91.1897 	 
H 	 -50.25 	 12.7743 	 -91.7471 	 
S 	 -57.6 	 16.5508 	 -90.7228 	 
C 	 -57.6523 	 18.2404 	 -90.752 	 
C 	 -57.0248 	 18.7765 	 -91.8239 	 
C 	 -56.379 	 17.8234 	 -92.6709 	 
C 	 -56.5794 	 16.5391 	 -92.1211 	 
H 	 -57.1041 	 19.8139 	 -91.9436 	 
C 	 -55.6331 	 18.3257 	 -93.8032 	 
H 	 -56.3439 	 19.1303 	 -94.1412 	 
H 	 -55.5767 	 17.6538 	 -94.6674 	 
C 	 -54.2035 	 18.867 	 -93.5947 	 
H 	 -53.6172 	 17.9742 	 -93.6587 	 
H 	 -54.0752 	 19.4184 	 -92.605 	 
C 	 -53.7453 	 19.6416 	 -94.8319 	 
H 	 -52.7727 	 20.1761 	 -94.6641 	 
H 	 -54.4871 	 20.4894 	 -94.8581 	 
H 	 -53.6352 	 19.089 	 -95.7827 	 
H 	 -55.0239 	 11.8618 	 -92.5889 	 
H 	 -58.18 	 18.8887 	 -90.0094 	 
