34

S 	 -112.434 	 58.1113 	 -25.229 	 
C 	 -112.692 	 59.4475 	 -24.1005 	 
C 	 -113.152 	 60.541 	 -24.7508 	 
C 	 -113.487 	 60.2754 	 -26.1476 	 
C 	 -113.096 	 59.0195 	 -26.5647 	 
H 	 -114.063 	 60.9014 	 -26.832 	 
C 	 -113.671 	 61.7853 	 -24.1041 	 
H 	 -113.401 	 62.7222 	 -24.5852 	 
H 	 -113.294 	 61.8668 	 -23.0627 	 
C 	 -115.16 	 61.7948 	 -24.0755 	 
H 	 -115.459 	 62.1637 	 -25.0907 	 
H 	 -115.671 	 60.8079 	 -23.8795 	 
C 	 -115.721 	 62.8965 	 -23.2353 	 
H 	 -116.809 	 63.0967 	 -23.3773 	 
H 	 -115.558 	 62.7619 	 -22.1056 	 
H 	 -115.248 	 63.7749 	 -23.3672 	 
S 	 -112.834 	 56.7822 	 -28.0627 	 
C 	 -113.667 	 56.5527 	 -29.5508 	 
C 	 -114.332 	 57.6976 	 -29.8835 	 
C 	 -114.166 	 58.8234 	 -28.968 	 
C 	 -113.363 	 58.4432 	 -27.879 	 
H 	 -114.987 	 57.5599 	 -30.7404 	 
C 	 -114.952 	 60.0602 	 -29.3395 	 
H 	 -115.237 	 60.0481 	 -30.3748 	 
H 	 -114.282 	 60.9328 	 -29.0837 	 
C 	 -116.273 	 60.317 	 -28.5431 	 
H 	 -116.5 	 61.369 	 -28.6745 	 
H 	 -116.057 	 60.1218 	 -27.4892 	 
C 	 -117.356 	 59.3823 	 -28.9551 	 
H 	 -118.301 	 59.5381 	 -28.5036 	 
H 	 -117.122 	 58.3714 	 -28.9007 	 
H 	 -117.506 	 59.7282 	 -29.9891 	 
H 	 -112.452 	 59.3888 	 -23.003 	 
H 	 -113.788 	 55.5041 	 -29.9299 	 
