34

S 	 -34.7372 	 -37.4381 	 -93.1606 	 
C 	 -33.61 	 -37.5842 	 -91.9039 	 
C 	 -34.1435 	 -37.3318 	 -90.6545 	 
C 	 -35.5606 	 -37.3507 	 -90.7802 	 
C 	 -36.1036 	 -37.3396 	 -92.0483 	 
H 	 -36.2483 	 -37.3336 	 -89.9067 	 
C 	 -33.3867 	 -37.3974 	 -89.3124 	 
H 	 -32.3462 	 -37.4282 	 -89.551 	 
H 	 -33.5695 	 -38.3869 	 -88.8418 	 
C 	 -33.9652 	 -36.3791 	 -88.3086 	 
H 	 -35.0673 	 -36.4275 	 -88.3089 	 
H 	 -33.7314 	 -36.7014 	 -87.2729 	 
C 	 -33.5751 	 -34.9384 	 -88.5815 	 
H 	 -33.6686 	 -34.5735 	 -89.5997 	 
H 	 -34.0142 	 -34.2267 	 -87.9138 	 
H 	 -32.6108 	 -34.8544 	 -88.2447 	 
S 	 -38.3495 	 -38.4279 	 -93.1886 	 
C 	 -39.6544 	 -37.3731 	 -93.5827 	 
C 	 -39.4528 	 -36.0603 	 -93.2654 	 
C 	 -38.2297 	 -35.8662 	 -92.5011 	 
C 	 -37.4958 	 -37.0759 	 -92.469 	 
H 	 -40.0875 	 -35.2296 	 -93.6501 	 
C 	 -37.7474 	 -34.516 	 -91.9686 	 
H 	 -37.3064 	 -34.8021 	 -90.9981 	 
H 	 -38.6671 	 -33.9473 	 -91.7839 	 
C 	 -36.774 	 -33.65 	 -92.8239 	 
H 	 -37.0953 	 -33.5773 	 -93.8495 	 
H 	 -35.7849 	 -34.1427 	 -92.8726 	 
C 	 -36.5138 	 -32.2295 	 -92.1826 	 
H 	 -36.1342 	 -32.4093 	 -91.1736 	 
H 	 -37.4601 	 -31.7575 	 -91.983 	 
H 	 -35.9674 	 -31.4982 	 -92.7559 	 
H 	 -32.4946 	 -37.6864 	 -92.0873 	 
H 	 -40.5213 	 -37.6139 	 -94.2387 	 
