34

S 	 -85.668 	 1.27648 	 -118.685 	 
C 	 -85.4318 	 -0.177177 	 -117.957 	 
C 	 -86.5673 	 -0.995009 	 -117.935 	 
C 	 -87.6849 	 -0.290191 	 -118.467 	 
C 	 -87.4396 	 0.97206 	 -118.798 	 
H 	 -88.7516 	 -0.624821 	 -118.614 	 
C 	 -86.6104 	 -2.44659 	 -117.633 	 
H 	 -85.577 	 -2.79613 	 -117.305 	 
H 	 -86.9657 	 -2.91056 	 -118.615 	 
C 	 -87.6501 	 -2.85009 	 -116.534 	 
H 	 -87.2569 	 -3.54939 	 -115.849 	 
H 	 -87.8151 	 -2.03023 	 -115.945 	 
C 	 -88.9756 	 -3.26243 	 -117.114 	 
H 	 -89.1868 	 -4.3185 	 -117.173 	 
H 	 -89.8145 	 -2.88518 	 -116.47 	 
H 	 -89.084 	 -2.87574 	 -118.121 	 
S 	 -87.7447 	 2.82326 	 -120.777 	 
C 	 -89.1136 	 3.99323 	 -120.599 	 
C 	 -90.0862 	 3.43754 	 -119.824 	 
C 	 -89.6688 	 2.26946 	 -119.159 	 
C 	 -88.3318 	 1.93919 	 -119.407 	 
H 	 -91.0287 	 3.92946 	 -119.8 	 
C 	 -90.5141 	 1.55953 	 -118.082 	 
H 	 -91.0441 	 2.35407 	 -117.585 	 
H 	 -89.8002 	 1.11525 	 -117.359 	 
C 	 -91.4509 	 0.487984 	 -118.655 	 
H 	 -90.9428 	 -0.167953 	 -119.413 	 
H 	 -92.1472 	 1.06729 	 -119.173 	 
C 	 -92.0943 	 -0.374443 	 -117.532 	 
H 	 -92.657 	 0.367841 	 -116.957 	 
H 	 -91.4538 	 -0.82418 	 -116.879 	 
H 	 -92.775 	 -1.02913 	 -118.013 	 
H 	 -84.4332 	 -0.526858 	 -117.743 	 
H 	 -89.3083 	 4.92483 	 -121.14 	 
