34

S 	 -74.2327 	 3.20843 	 -66.7813 	 
C 	 -72.8838 	 2.95349 	 -65.7012 	 
C 	 -72.7914 	 1.71441 	 -65.2097 	 
C 	 -73.8005 	 0.892997 	 -65.7529 	 
C 	 -74.7534 	 1.50498 	 -66.5991 	 
H 	 -74.1158 	 -0.161239 	 -65.4695 	 
C 	 -71.9318 	 1.36867 	 -64.0387 	 
H 	 -72.0942 	 0.282432 	 -63.892 	 
H 	 -72.277 	 1.86707 	 -63.1531 	 
C 	 -70.3976 	 1.50502 	 -64.1429 	 
H 	 -70.0874 	 0.930799 	 -65.0824 	 
H 	 -70.0133 	 2.5224 	 -64.333 	 
C 	 -69.6628 	 0.948352 	 -62.8644 	 
H 	 -69.7716 	 -0.0616567 	 -62.6957 	 
H 	 -68.6689 	 1.11063 	 -62.9164 	 
H 	 -69.8927 	 1.50752 	 -62.0071 	 
S 	 -75.806 	 -0.409063 	 -68.268 	 
C 	 -77.4559 	 -0.246745 	 -68.7886 	 
C 	 -78.1616 	 0.71688 	 -68.1586 	 
C 	 -77.2746 	 1.5229 	 -67.2451 	 
C 	 -75.9957 	 0.975899 	 -67.2197 	 
H 	 -79.1418 	 0.981752 	 -68.539 	 
C 	 -77.665 	 2.83815 	 -66.6823 	 
H 	 -77.0793 	 3.12638 	 -65.8384 	 
H 	 -78.6538 	 2.73559 	 -66.1381 	 
C 	 -77.792 	 3.99324 	 -67.6971 	 
H 	 -78.5997 	 3.71239 	 -68.4399 	 
H 	 -76.8502 	 4.21599 	 -68.1587 	 
C 	 -78.1753 	 5.27668 	 -66.9741 	 
H 	 -77.3485 	 5.54299 	 -66.284 	 
H 	 -79.1061 	 5.09858 	 -66.4898 	 
H 	 -78.2481 	 6.01805 	 -67.7967 	 
H 	 -72.228 	 3.76149 	 -65.3827 	 
H 	 -77.865 	 -0.837465 	 -69.5806 	 
