34

S 	 -54.9312 	 8.8971 	 -31.3776 	 
C 	 -56.0181 	 7.53914 	 -31.001 	 
C 	 -56.0913 	 6.58739 	 -31.964 	 
C 	 -55.1236 	 6.90443 	 -32.9998 	 
C 	 -54.2624 	 7.93985 	 -32.7295 	 
H 	 -55.0993 	 6.27761 	 -33.8624 	 
C 	 -56.9452 	 5.353 	 -31.951 	 
H 	 -57.6373 	 5.38302 	 -32.7434 	 
H 	 -57.7326 	 5.3409 	 -31.1458 	 
C 	 -56.2278 	 4.00777 	 -32.0639 	 
H 	 -55.2975 	 4.21325 	 -32.6141 	 
H 	 -55.8258 	 3.77213 	 -31.0908 	 
C 	 -57.0371 	 2.84736 	 -32.5938 	 
H 	 -57.5393 	 3.03761 	 -33.5713 	 
H 	 -56.4317 	 1.95933 	 -32.7809 	 
H 	 -57.7753 	 2.46123 	 -31.8205 	 
S 	 -52.7052 	 9.84787 	 -33.9467 	 
C 	 -51.1222 	 9.55678 	 -34.5524 	 
C 	 -50.8137 	 8.25886 	 -34.362 	 
C 	 -51.912 	 7.49696 	 -33.7678 	 
C 	 -53.0038 	 8.23213 	 -33.4308 	 
H 	 -49.8183 	 7.85213 	 -34.556 	 
C 	 -51.7384 	 6.06431 	 -33.5684 	 
H 	 -50.9337 	 5.74271 	 -34.3151 	 
H 	 -52.6733 	 5.5934 	 -33.858 	 
C 	 -51.2929 	 5.62329 	 -32.1504 	 
H 	 -51.8626 	 6.1176 	 -31.3974 	 
H 	 -50.3145 	 6.07655 	 -32.0053 	 
C 	 -51.285 	 4.14649 	 -31.9322 	 
H 	 -50.9524 	 3.61581 	 -32.8424 	 
H 	 -52.2852 	 3.6964 	 -31.823 	 
H 	 -50.7238 	 3.84861 	 -31.1549 	 
H 	 -56.6254 	 7.49361 	 -30.13 	 
H 	 -50.4807 	 10.2832 	 -34.9819 	 
