34

S 	 -39.6343 	 -9.80993 	 6.28357 	 
C 	 -39.683 	 -10.9552 	 7.53884 	 
C 	 -39.1144 	 -10.5515 	 8.75295 	 
C 	 -38.6878 	 -9.17593 	 8.5929 	 
C 	 -38.9877 	 -8.63363 	 7.34224 	 
H 	 -38.1647 	 -8.51824 	 9.21347 	 
C 	 -38.8129 	 -11.4304 	 9.97567 	 
H 	 -38.9736 	 -12.4099 	 9.70978 	 
H 	 -39.6287 	 -11.2602 	 10.7653 	 
C 	 -37.4297 	 -11.3115 	 10.6493 	 
H 	 -37.3747 	 -10.3723 	 11.1947 	 
H 	 -37.5439 	 -12.1562 	 11.4046 	 
C 	 -36.2842 	 -11.5578 	 9.70044 	 
H 	 -35.4414 	 -11.0162 	 9.8677 	 
H 	 -35.9463 	 -12.6339 	 9.76393 	 
H 	 -36.4715 	 -11.266 	 8.66436 	 
S 	 -36.9265 	 -7.34964 	 6.04523 	 
C 	 -36.9051 	 -5.60347 	 6.00008 	 
C 	 -38.0082 	 -5.08726 	 6.72245 	 
C 	 -38.9341 	 -6.07658 	 7.1755 	 
C 	 -38.4653 	 -7.33251 	 6.84673 	 
H 	 -38.1014 	 -4.00506 	 6.90409 	 
C 	 -40.2252 	 -5.67125 	 7.84299 	 
H 	 -40.8815 	 -6.59025 	 7.93357 	 
H 	 -40.7481 	 -5.07819 	 7.05821 	 
C 	 -40.1027 	 -5.02907 	 9.27766 	 
H 	 -39.3371 	 -4.26965 	 9.16088 	 
H 	 -39.8937 	 -5.85543 	 9.9314 	 
C 	 -41.4569 	 -4.39543 	 9.68669 	 
H 	 -41.3482 	 -3.75736 	 10.5917 	 
H 	 -42.1308 	 -5.18674 	 9.91847 	 
H 	 -41.8778 	 -3.85784 	 8.84356 	 
H 	 -39.9084 	 -11.9898 	 7.27967 	 
H 	 -35.9955 	 -4.9768 	 5.72021 	 
