34

S 	 -73.7477 	 -0.601587 	 10.7123 	 
C 	 -73.1168 	 0.725243 	 9.74959 	 
C 	 -73.4717 	 1.99035 	 10.2591 	 
C 	 -74.1746 	 1.88415 	 11.4739 	 
C 	 -74.2905 	 0.552041 	 11.905 	 
H 	 -74.6274 	 2.70437 	 12.0614 	 
C 	 -73.2228 	 3.27131 	 9.49576 	 
H 	 -72.1258 	 3.3153 	 9.08725 	 
H 	 -73.3447 	 4.03837 	 10.2375 	 
C 	 -74.2277 	 3.36481 	 8.31843 	 
H 	 -73.8395 	 4.19293 	 7.71578 	 
H 	 -74.0663 	 2.48026 	 7.72651 	 
C 	 -75.6998 	 3.62841 	 8.66659 	 
H 	 -75.8676 	 4.46711 	 9.39851 	 
H 	 -76.2619 	 3.83251 	 7.67722 	 
H 	 -76.1818 	 2.725 	 9.02363 	 
S 	 -76.2883 	 -0.991972 	 12.8624 	 
C 	 -76.5692 	 -1.20906 	 14.4956 	 
C 	 -75.5196 	 -0.694712 	 15.2515 	 
C 	 -74.5375 	 0.0106998 	 14.4586 	 
C 	 -74.8755 	 0.0685856 	 13.1213 	 
H 	 -75.4938 	 -0.846084 	 16.3141 	 
C 	 -73.2136 	 0.609736 	 14.9432 	 
H 	 -73.2614 	 1.66626 	 14.8875 	 
H 	 -72.442 	 0.518968 	 14.231 	 
C 	 -72.7523 	 0.120971 	 16.3301 	 
H 	 -73.4537 	 0.298246 	 17.1268 	 
H 	 -71.8865 	 0.726128 	 16.7411 	 
C 	 -72.3049 	 -1.35557 	 16.4237 	 
H 	 -73.1132 	 -2.01896 	 16.1157 	 
H 	 -71.8069 	 -1.55451 	 17.3981 	 
H 	 -71.528 	 -1.62597 	 15.7499 	 
H 	 -72.4133 	 0.563998 	 8.85547 	 
H 	 -77.4991 	 -1.67889 	 14.9642 	 
