34

S 	 -96.0316 	 15.0378 	 -116.033 	 
C 	 -96.2186 	 15.005 	 -114.31 	 
C 	 -97.5457 	 14.7303 	 -113.945 	 
C 	 -98.3691 	 14.4532 	 -115.075 	 
C 	 -97.7247 	 14.7987 	 -116.285 	 
H 	 -99.4037 	 14.2295 	 -115.094 	 
C 	 -98.0502 	 14.6403 	 -112.514 	 
H 	 -98.7746 	 15.4485 	 -112.291 	 
H 	 -97.2145 	 14.8492 	 -111.762 	 
C 	 -98.4833 	 13.2339 	 -112.029 	 
H 	 -99.014 	 13.3472 	 -111.09 	 
H 	 -99.1415 	 12.9575 	 -112.809 	 
C 	 -97.307 	 12.3512 	 -111.791 	 
H 	 -96.7144 	 12.5922 	 -110.937 	 
H 	 -97.5161 	 11.3986 	 -111.569 	 
H 	 -96.589 	 12.2979 	 -112.632 	 
S 	 -98.3407 	 16.4315 	 -118.478 	 
C 	 -99.4237 	 15.8659 	 -119.748 	 
C 	 -99.8239 	 14.6022 	 -119.483 	 
C 	 -99.3152 	 14.0389 	 -118.284 	 
C 	 -98.4437 	 14.9107 	 -117.591 	 
H 	 -100.491 	 14.2369 	 -120.211 	 
C 	 -99.7057 	 12.6681 	 -117.744 	 
H 	 -100.509 	 12.7907 	 -117.026 	 
H 	 -98.8688 	 12.2427 	 -117.185 	 
C 	 -100.157 	 11.6377 	 -118.783 	 
H 	 -99.6022 	 11.5775 	 -119.735 	 
H 	 -101.213 	 11.7194 	 -119.108 	 
C 	 -100.047 	 10.3296 	 -118.139 	 
H 	 -98.9705 	 10.0711 	 -118.078 	 
H 	 -100.611 	 9.46359 	 -118.579 	 
H 	 -100.326 	 10.3023 	 -117.085 	 
H 	 -95.4444 	 15.3468 	 -113.669 	 
H 	 -99.842 	 16.4236 	 -120.558 	 
