34

S 	 -93.1676 	 3.67044 	 -3.68399 	 
C 	 -91.4906 	 3.06274 	 -3.78297 	 
C 	 -90.6705 	 3.67497 	 -2.85468 	 
C 	 -91.4184 	 4.49602 	 -1.94947 	 
C 	 -92.7889 	 4.34636 	 -2.12498 	 
H 	 -90.9825 	 5.06945 	 -1.13318 	 
C 	 -89.1741 	 3.35684 	 -2.674 	 
H 	 -88.8597 	 3.92982 	 -1.83962 	 
H 	 -88.7124 	 3.71394 	 -3.61972 	 
C 	 -88.9576 	 1.86936 	 -2.30529 	 
H 	 -89.5095 	 1.50906 	 -1.48448 	 
H 	 -89.3801 	 1.34016 	 -3.17993 	 
C 	 -87.4235 	 1.55102 	 -2.16516 	 
H 	 -86.9949 	 2.19355 	 -1.37072 	 
H 	 -87.2434 	 0.457958 	 -1.93227 	 
H 	 -86.9705 	 1.87255 	 -3.10053 	 
S 	 -95.2777 	 5.59516 	 -2.25832 	 
C 	 -96.0595 	 6.08101 	 -0.77837 	 
C 	 -95.2883 	 5.66143 	 0.270031 	 
C 	 -94.0125 	 5.03714 	 -0.0145661 	 
C 	 -93.8224 	 4.99468 	 -1.38918 	 
H 	 -95.6074 	 5.88417 	 1.30624 	 
C 	 -93.0708 	 4.5537 	 1.04739 	 
H 	 -92.9198 	 5.34268 	 1.76597 	 
H 	 -92.1125 	 4.40585 	 0.533547 	 
C 	 -93.2096 	 3.26701 	 1.8388 	 
H 	 -94.149 	 3.36038 	 2.45882 	 
H 	 -92.299 	 3.00067 	 2.46706 	 
C 	 -93.4295 	 2.08327 	 0.976781 	 
H 	 -92.501 	 1.75016 	 0.569078 	 
H 	 -94.0327 	 2.32122 	 0.114402 	 
H 	 -93.9881 	 1.25012 	 1.48097 	 
H 	 -91.3459 	 2.4144 	 -4.59892 	 
H 	 -96.9145 	 6.7667 	 -0.711198 	 
