34

S 	 -135.275 	 65.411 	 -66.3197 	 
C 	 -135.902 	 66.7488 	 -67.3205 	 
C 	 -136.357 	 67.8173 	 -66.5765 	 
C 	 -136.172 	 67.6108 	 -65.1794 	 
C 	 -135.734 	 66.3659 	 -64.8365 	 
H 	 -136.485 	 68.361 	 -64.4437 	 
C 	 -136.902 	 69.0593 	 -67.261 	 
H 	 -137.312 	 68.8792 	 -68.2138 	 
H 	 -135.997 	 69.6379 	 -67.4589 	 
C 	 -137.874 	 70.0458 	 -66.5344 	 
H 	 -137.432 	 70.4062 	 -65.5975 	 
H 	 -137.986 	 70.8705 	 -67.2724 	 
C 	 -139.375 	 69.5756 	 -66.413 	 
H 	 -139.837 	 69.4574 	 -67.4074 	 
H 	 -139.483 	 68.6586 	 -65.8145 	 
H 	 -140.015 	 70.3568 	 -65.9421 	 
S 	 -136.128 	 64.1423 	 -63.2914 	 
C 	 -135.797 	 64.2009 	 -61.555 	 
C 	 -135.064 	 65.3339 	 -61.2771 	 
C 	 -134.985 	 66.277 	 -62.3636 	 
C 	 -135.512 	 65.7899 	 -63.5321 	 
H 	 -134.691 	 65.4074 	 -60.2788 	 
C 	 -134.394 	 67.6604 	 -62.1049 	 
H 	 -134.438 	 67.8635 	 -61.0155 	 
H 	 -135.017 	 68.3491 	 -62.6218 	 
C 	 -133.029 	 67.9289 	 -62.6553 	 
H 	 -132.769 	 68.8953 	 -62.1635 	 
H 	 -133.081 	 68.2523 	 -63.6891 	 
C 	 -131.933 	 66.8204 	 -62.3421 	 
H 	 -131.762 	 66.7775 	 -61.3218 	 
H 	 -130.924 	 67.0292 	 -62.7252 	 
H 	 -132.18 	 65.8259 	 -62.7326 	 
H 	 -135.673 	 66.8869 	 -68.3436 	 
H 	 -135.966 	 63.3509 	 -60.8466 	 
