34

S 	 -101.243 	 35.63 	 -91.2128 	 
C 	 -100.376 	 34.4669 	 -90.2045 	 
C 	 -99.2021 	 35.056 	 -89.7074 	 
C 	 -99.0595 	 36.4368 	 -90.1716 	 
C 	 -100.074 	 36.948 	 -91.0342 	 
H 	 -98.2576 	 37.1067 	 -89.9306 	 
C 	 -98.2335 	 34.2997 	 -88.7749 	 
H 	 -98.0035 	 33.3771 	 -89.2932 	 
H 	 -98.9417 	 33.9885 	 -88.0791 	 
C 	 -96.9412 	 34.9938 	 -88.3421 	 
H 	 -96.3431 	 35.3969 	 -89.1543 	 
H 	 -97.0539 	 35.8584 	 -87.6654 	 
C 	 -96.0692 	 33.9423 	 -87.4833 	 
H 	 -95.0311 	 34.3629 	 -87.2098 	 
H 	 -96.4141 	 33.7445 	 -86.4607 	 
H 	 -95.8903 	 33.0721 	 -87.9955 	 
S 	 -100.639 	 38.3112 	 -93.3914 	 
C 	 -100.727 	 40.0445 	 -93.4305 	 
C 	 -100.27 	 40.5413 	 -92.2178 	 
C 	 -99.9256 	 39.5578 	 -91.2406 	 
C 	 -100.221 	 38.2666 	 -91.6847 	 
H 	 -100.2 	 41.6477 	 -92.1988 	 
C 	 -99.3889 	 39.8267 	 -89.8866 	 
H 	 -99.5122 	 38.8949 	 -89.2746 	 
H 	 -100.089 	 40.5865 	 -89.4957 	 
C 	 -97.9789 	 40.3338 	 -89.8851 	 
H 	 -97.7086 	 41.2156 	 -90.4831 	 
H 	 -97.4601 	 39.5028 	 -90.3621 	 
C 	 -97.3335 	 40.3594 	 -88.4949 	 
H 	 -97.7387 	 41.0523 	 -87.7828 	 
H 	 -96.3306 	 40.5855 	 -88.5364 	 
H 	 -97.4954 	 39.4011 	 -88.0593 	 
H 	 -100.693 	 33.4944 	 -89.9078 	 
H 	 -100.907 	 40.562 	 -94.3194 	 
