34

S 	 -137.513 	 9.03804 	 6.44285 	 
C 	 -136.739 	 8.86779 	 4.87577 	 
C 	 -137.699 	 8.79945 	 3.87783 	 
C 	 -138.992 	 9.16136 	 4.35238 	 
C 	 -139.057 	 9.38596 	 5.69065 	 
H 	 -139.881 	 9.25274 	 3.73938 	 
C 	 -137.479 	 8.43835 	 2.50666 	 
H 	 -136.601 	 8.99636 	 2.21171 	 
H 	 -138.416 	 8.6889 	 2.03268 	 
C 	 -137.211 	 6.90828 	 2.30416 	 
H 	 -136.451 	 6.5021 	 2.98891 	 
H 	 -138.102 	 6.41812 	 2.62728 	 
C 	 -136.856 	 6.49901 	 0.83305 	 
H 	 -137.636 	 6.8401 	 0.152077 	 
H 	 -135.933 	 6.99897 	 0.676352 	 
H 	 -136.863 	 5.46302 	 0.715542 	 
S 	 -140.806 	 7.98267 	 7.30224 	 
C 	 -142.301 	 8.75398 	 7.90791 	 
C 	 -142.455 	 9.95633 	 7.37399 	 
C 	 -141.328 	 10.3442 	 6.54113 	 
C 	 -140.327 	 9.43007 	 6.41408 	 
H 	 -143.326 	 10.6079 	 7.57215 	 
C 	 -141.335 	 11.7405 	 5.93553 	 
H 	 -142.316 	 12.1224 	 5.80333 	 
H 	 -140.961 	 11.705 	 4.88112 	 
C 	 -140.56 	 12.761 	 6.77408 	 
H 	 -139.478 	 12.7349 	 6.55671 	 
H 	 -140.726 	 12.528 	 7.82053 	 
C 	 -140.887 	 14.259 	 6.49583 	 
H 	 -141.905 	 14.5569 	 6.73718 	 
H 	 -140.58 	 14.6155 	 5.49956 	 
H 	 -140.42 	 14.8445 	 7.37213 	 
H 	 -135.677 	 8.73944 	 4.74608 	 
H 	 -143.026 	 8.13318 	 8.45705 	 
