34

S 	 -121.482 	 44.8035 	 -31.6796 	 
C 	 -120.883 	 43.8737 	 -30.3083 	 
C 	 -119.683 	 44.4548 	 -29.7771 	 
C 	 -119.509 	 45.7121 	 -30.3522 	 
C 	 -120.302 	 45.9746 	 -31.424 	 
H 	 -118.678 	 46.3393 	 -30.1979 	 
C 	 -118.781 	 43.787 	 -28.7199 	 
H 	 -118.531 	 42.7291 	 -29.0153 	 
H 	 -119.271 	 43.6258 	 -27.7624 	 
C 	 -117.356 	 44.3541 	 -28.5043 	 
H 	 -117.517 	 45.3785 	 -28.2437 	 
H 	 -116.922 	 43.7878 	 -27.711 	 
C 	 -116.321 	 44.1949 	 -29.6488 	 
H 	 -116.184 	 43.1239 	 -29.7914 	 
H 	 -116.713 	 44.6054 	 -30.598 	 
H 	 -115.31 	 44.5803 	 -29.5324 	 
S 	 -120.081 	 46.6718 	 -34.1661 	 
C 	 -119.727 	 48.2964 	 -34.6385 	 
C 	 -119.504 	 49.0749 	 -33.5342 	 
C 	 -119.717 	 48.4247 	 -32.2588 	 
C 	 -120.054 	 47.0685 	 -32.4066 	 
H 	 -119.148 	 50.0468 	 -33.6452 	 
C 	 -119.592 	 49.1606 	 -30.9168 	 
H 	 -119.269 	 50.1677 	 -31.1894 	 
H 	 -118.839 	 48.6229 	 -30.3331 	 
C 	 -120.867 	 49.2938 	 -30.0705 	 
H 	 -120.449 	 49.9936 	 -29.3316 	 
H 	 -121.086 	 48.4078 	 -29.4889 	 
C 	 -122.04 	 50.0161 	 -30.8135 	 
H 	 -122.49 	 49.2886 	 -31.5136 	 
H 	 -121.728 	 50.916 	 -31.362 	 
H 	 -122.834 	 50.2 	 -30.0395 	 
H 	 -121.205 	 42.8952 	 -29.9922 	 
H 	 -119.586 	 48.6119 	 -35.6518 	 
