34

S 	 -48.968 	 5.80989 	 -17.5406 	 
C 	 -49.2538 	 4.4073 	 -18.5687 	 
C 	 -49.5867 	 3.39078 	 -17.7169 	 
C 	 -50.0111 	 3.78897 	 -16.4492 	 
C 	 -49.7205 	 5.09124 	 -16.1178 	 
H 	 -50.4697 	 3.09728 	 -15.739 	 
C 	 -49.7511 	 1.96729 	 -18.2033 	 
H 	 -49.3156 	 1.82399 	 -19.2792 	 
H 	 -50.8411 	 1.90931 	 -18.2628 	 
C 	 -49.0875 	 0.916572 	 -17.284 	 
H 	 -49.5394 	 1.00378 	 -16.3126 	 
H 	 -49.2507 	 -0.0130226 	 -17.6718 	 
C 	 -47.5484 	 1.06889 	 -17.2343 	 
H 	 -47.0975 	 0.102255 	 -16.9151 	 
H 	 -47.2239 	 1.20642 	 -18.234 	 
H 	 -47.2652 	 2.0048 	 -16.7478 	 
S 	 -50.5769 	 7.32984 	 -14.6202 	 
C 	 -50.5355 	 7.13028 	 -12.8806 	 
C 	 -49.9846 	 5.94525 	 -12.5174 	 
C 	 -49.5622 	 5.12055 	 -13.5598 	 
C 	 -49.8138 	 5.74812 	 -14.805 	 
H 	 -50.0757 	 5.54463 	 -11.5009 	 
C 	 -48.8892 	 3.79491 	 -13.2464 	 
H 	 -49.0782 	 3.04155 	 -14.0302 	 
H 	 -49.3702 	 3.40861 	 -12.329 	 
C 	 -47.3421 	 3.81389 	 -13.2628 	 
H 	 -46.9165 	 4.04939 	 -14.2256 	 
H 	 -46.9577 	 2.78584 	 -13.0772 	 
C 	 -46.7412 	 4.59298 	 -12.0776 	 
H 	 -45.6993 	 4.30539 	 -11.9711 	 
H 	 -47.1922 	 4.38508 	 -11.1379 	 
H 	 -46.6826 	 5.65445 	 -12.237 	 
H 	 -48.9214 	 4.26004 	 -19.5979 	 
H 	 -51.0533 	 7.76769 	 -12.1956 	 
