34

S 	 -105.522 	 43.866 	 -96.0007 	 
C 	 -104.592 	 42.357 	 -95.7222 	 
C 	 -103.356 	 42.5861 	 -95.2452 	 
C 	 -103.061 	 43.9943 	 -95.2049 	 
C 	 -104.122 	 44.7952 	 -95.5683 	 
H 	 -102.263 	 44.4176 	 -94.7525 	 
C 	 -102.38 	 41.5346 	 -94.71 	 
H 	 -102.944 	 40.6796 	 -94.3059 	 
H 	 -101.783 	 41.9162 	 -93.8641 	 
C 	 -101.352 	 40.976 	 -95.7758 	 
H 	 -101.732 	 40.2993 	 -96.4838 	 
H 	 -100.948 	 41.7965 	 -96.3138 	 
C 	 -100.152 	 40.2928 	 -95.1741 	 
H 	 -99.7262 	 40.791 	 -94.3315 	 
H 	 -100.442 	 39.2925 	 -94.8553 	 
H 	 -99.3443 	 40.1478 	 -95.8559 	 
S 	 -105.728 	 46.9848 	 -94.8241 	 
C 	 -105.136 	 48.6549 	 -95.0883 	 
C 	 -103.813 	 48.6064 	 -95.5223 	 
C 	 -103.272 	 47.2647 	 -95.6256 	 
C 	 -104.204 	 46.2821 	 -95.3735 	 
H 	 -103.399 	 49.5312 	 -95.7973 	 
C 	 -101.917 	 47.0939 	 -96.3247 	 
H 	 -101.542 	 46.2878 	 -95.6481 	 
H 	 -101.218 	 48.0288 	 -96.2027 	 
C 	 -102.014 	 46.5459 	 -97.7567 	 
H 	 -102.308 	 47.4689 	 -98.4091 	 
H 	 -102.876 	 45.8942 	 -97.8577 	 
C 	 -100.681 	 46.0539 	 -98.3078 	 
H 	 -100.706 	 44.985 	 -98.209 	 
H 	 -99.8006 	 46.4667 	 -97.7428 	 
H 	 -100.702 	 46.2223 	 -99.4003 	 
H 	 -104.989 	 41.3781 	 -95.9351 	 
H 	 -105.842 	 49.4517 	 -95.1614 	 
