34

S 	 -106.41 	 53.4435 	 -103.197 	 
C 	 -107.535 	 52.1979 	 -103.068 	 
C 	 -108.74 	 52.7703 	 -102.771 	 
C 	 -108.665 	 54.0495 	 -102.129 	 
C 	 -107.518 	 54.6364 	 -102.5 	 
H 	 -109.527 	 54.5835 	 -101.62 	 
C 	 -109.915 	 51.8774 	 -102.653 	 
H 	 -109.84 	 51.0522 	 -103.391 	 
H 	 -110.879 	 52.4451 	 -102.805 	 
C 	 -109.86 	 51.1426 	 -101.28 	 
H 	 -108.892 	 50.5857 	 -101.173 	 
H 	 -110.038 	 51.8733 	 -100.448 	 
C 	 -110.953 	 50.0961 	 -101.224 	 
H 	 -111.959 	 50.4703 	 -101.453 	 
H 	 -110.754 	 49.2294 	 -101.89 	 
H 	 -111.044 	 49.6813 	 -100.189 	 
S 	 -106.669 	 56.4422 	 -100.675 	 
C 	 -106.356 	 58.1434 	 -101.172 	 
C 	 -106.685 	 58.308 	 -102.487 	 
C 	 -107.184 	 57.1351 	 -103.139 	 
C 	 -107.142 	 56.0309 	 -102.283 	 
H 	 -106.618 	 59.312 	 -102.924 	 
C 	 -107.673 	 57.247 	 -104.53 	 
H 	 -107.972 	 56.2066 	 -104.851 	 
H 	 -106.759 	 57.5537 	 -105.046 	 
C 	 -108.809 	 58.2168 	 -104.823 	 
H 	 -108.978 	 58.2957 	 -105.907 	 
H 	 -108.469 	 59.1678 	 -104.571 	 
C 	 -110.169 	 57.7874 	 -104.098 	 
H 	 -110.601 	 56.878 	 -104.552 	 
H 	 -110.851 	 58.6268 	 -104.174 	 
H 	 -110.078 	 57.7183 	 -103.055 	 
H 	 -107.311 	 51.2069 	 -103.371 	 
H 	 -105.834 	 58.9006 	 -100.608 	 
