34

S 	 -135.877 	 11.9806 	 -15.2257 	 
C 	 -136.093 	 10.4368 	 -14.4613 	 
C 	 -134.918 	 9.72241 	 -14.4974 	 
C 	 -133.839 	 10.4057 	 -15.1299 	 
C 	 -134.217 	 11.6066 	 -15.6502 	 
H 	 -132.782 	 10.0905 	 -15.2784 	 
C 	 -134.731 	 8.40585 	 -13.779 	 
H 	 -134.494 	 7.68369 	 -14.5415 	 
H 	 -135.687 	 7.97551 	 -13.3581 	 
C 	 -133.566 	 8.46574 	 -12.8065 	 
H 	 -132.734 	 8.94092 	 -13.3008 	 
H 	 -133.894 	 9.05553 	 -11.9314 	 
C 	 -133.131 	 7.12533 	 -12.2689 	 
H 	 -133.915 	 6.60969 	 -11.7218 	 
H 	 -132.936 	 6.56752 	 -13.2182 	 
H 	 -132.269 	 7.23548 	 -11.5877 	 
S 	 -132.621 	 13.7808 	 -15.4022 	 
C 	 -131.82 	 14.5181 	 -16.7503 	 
C 	 -131.979 	 13.7175 	 -17.8265 	 
C 	 -132.833 	 12.5513 	 -17.6069 	 
C 	 -133.407 	 12.5628 	 -16.3721 	 
H 	 -131.541 	 13.969 	 -18.8273 	 
C 	 -133.081 	 11.4895 	 -18.6591 	 
H 	 -133.58 	 11.8637 	 -19.4662 	 
H 	 -133.873 	 10.8789 	 -18.2554 	 
C 	 -131.817 	 10.758 	 -18.9671 	 
H 	 -131.311 	 10.3403 	 -18.0068 	 
H 	 -131.014 	 11.465 	 -19.312 	 
C 	 -132.154 	 9.63409 	 -20.0608 	 
H 	 -131.392 	 8.83089 	 -20.1855 	 
H 	 -132.413 	 10.1515 	 -20.9519 	 
H 	 -133.094 	 9.14308 	 -19.7425 	 
H 	 -136.974 	 10.1207 	 -13.9567 	 
H 	 -130.992 	 15.1667 	 -16.7408 	 
