34

S 	 -105.082 	 -2.57994 	 -110.057 	 
C 	 -106.827 	 -2.5203 	 -110.218 	 
C 	 -107.471 	 -1.69129 	 -109.336 	 
C 	 -106.483 	 -1.07117 	 -108.533 	 
C 	 -105.176 	 -1.34984 	 -108.82 	 
H 	 -106.688 	 -0.499776 	 -107.597 	 
C 	 -108.947 	 -1.34725 	 -109.253 	 
H 	 -109.185 	 -2.10158 	 -108.508 	 
H 	 -109.384 	 -1.60281 	 -110.259 	 
C 	 -109.242 	 0.138436 	 -108.783 	 
H 	 -108.768 	 0.356041 	 -107.793 	 
H 	 -108.832 	 0.896011 	 -109.455 	 
C 	 -110.71 	 0.530765 	 -108.585 	 
H 	 -111.288 	 -0.253152 	 -108.163 	 
H 	 -110.899 	 1.43179 	 -107.919 	 
H 	 -111.097 	 0.756047 	 -109.568 	 
S 	 -102.894 	 -1.83167 	 -107.433 	 
C 	 -102.404 	 -0.66118 	 -106.234 	 
C 	 -102.94 	 0.590826 	 -106.493 	 
C 	 -103.89 	 0.530485 	 -107.579 	 
C 	 -104.005 	 -0.720557 	 -108.153 	 
H 	 -102.582 	 1.44692 	 -105.988 	 
C 	 -104.679 	 1.76705 	 -108.117 	 
H 	 -105.691 	 1.68625 	 -107.672 	 
H 	 -104.811 	 1.77157 	 -109.239 	 
C 	 -104.092 	 3.11674 	 -107.78 	 
H 	 -103.783 	 3.17416 	 -106.7 	 
H 	 -104.888 	 3.88888 	 -107.871 	 
C 	 -102.787 	 3.48769 	 -108.633 	 
H 	 -101.991 	 2.85375 	 -108.29 	 
H 	 -102.419 	 4.54229 	 -108.399 	 
H 	 -102.968 	 3.32864 	 -109.688 	 
H 	 -107.369 	 -3.15254 	 -110.931 	 
H 	 -101.633 	 -0.881287 	 -105.526 	 
