34

S 	 -89.7211 	 -36.7365 	 -64.2726 	 
C 	 -91.2524 	 -37.4609 	 -64.5287 	 
C 	 -92.164 	 -36.674 	 -65.0477 	 
C 	 -91.597 	 -35.4069 	 -65.3319 	 
C 	 -90.2291 	 -35.3298 	 -65.1331 	 
H 	 -92.1261 	 -34.5748 	 -65.8195 	 
C 	 -93.5879 	 -37.0118 	 -65.3971 	 
H 	 -94.2526 	 -36.0844 	 -65.4423 	 
H 	 -93.8977 	 -37.6852 	 -64.6327 	 
C 	 -93.6665 	 -37.7568 	 -66.7793 	 
H 	 -93.027 	 -38.6421 	 -66.6849 	 
H 	 -94.7151 	 -38.1204 	 -66.8733 	 
C 	 -93.1262 	 -36.9496 	 -67.9606 	 
H 	 -93.6033 	 -36.0175 	 -67.9806 	 
H 	 -92.0831 	 -36.6239 	 -67.732 	 
H 	 -93.2064 	 -37.4192 	 -68.8628 	 
S 	 -88.6286 	 -33.3064 	 -64.0928 	 
C 	 -88.0914 	 -31.9333 	 -65.0421 	 
C 	 -88.3186 	 -32.253 	 -66.3732 	 
C 	 -89.1984 	 -33.3754 	 -66.5645 	 
C 	 -89.4039 	 -34.1739 	 -65.4548 	 
H 	 -88.0948 	 -31.4829 	 -67.0686 	 
C 	 -89.6481 	 -33.6684 	 -67.9572 	 
H 	 -89.8106 	 -34.7589 	 -67.9407 	 
H 	 -88.8816 	 -33.492 	 -68.6814 	 
C 	 -90.9533 	 -32.9309 	 -68.4112 	 
H 	 -91.0425 	 -32.0163 	 -67.7719 	 
H 	 -91.8145 	 -33.5612 	 -68.2807 	 
C 	 -90.9278 	 -32.5373 	 -69.8529 	 
H 	 -90.7904 	 -33.4052 	 -70.4735 	 
H 	 -90.1113 	 -31.8685 	 -70.0189 	 
H 	 -91.8547 	 -32.0098 	 -70.0987 	 
H 	 -91.4443 	 -38.5038 	 -64.4666 	 
H 	 -87.7472 	 -30.9803 	 -64.8269 	 
