34

S 	 46.5656 	 -37.4525 	 -119.843 	 
C 	 45.8458 	 -36.4521 	 -121.098 	 
C 	 46.4915 	 -35.275 	 -121.142 	 
C 	 47.5924 	 -35.1467 	 -120.266 	 
C 	 47.8076 	 -36.283 	 -119.567 	 
H 	 48.2415 	 -34.1918 	 -120.181 	 
C 	 46.1756 	 -34.1183 	 -122.01 	 
H 	 45.6589 	 -34.4513 	 -122.94 	 
H 	 47.0709 	 -33.6406 	 -122.234 	 
C 	 45.223 	 -33.0761 	 -121.248 	 
H 	 44.5146 	 -33.7279 	 -120.719 	 
H 	 45.7922 	 -32.5611 	 -120.479 	 
C 	 44.66 	 -31.9537 	 -122.073 	 
H 	 44.0692 	 -32.4284 	 -122.923 	 
H 	 44.1519 	 -31.096 	 -121.617 	 
H 	 45.475 	 -31.5036 	 -122.603 	 
S 	 49.9726 	 -37.934 	 -118.805 	 
C 	 50.967 	 -37.5196 	 -117.459 	 
C 	 50.4441 	 -36.3789 	 -116.847 	 
C 	 49.2802 	 -35.7803 	 -117.474 	 
C 	 48.8846 	 -36.5297 	 -118.568 	 
H 	 50.9608 	 -36.027 	 -115.956 	 
C 	 48.5873 	 -34.5787 	 -116.923 	 
H 	 48.2753 	 -33.8698 	 -117.608 	 
H 	 49.4596 	 -34.1099 	 -116.586 	 
C 	 47.4571 	 -34.8469 	 -115.992 	 
H 	 47.9147 	 -35.3311 	 -115.069 	 
H 	 46.7277 	 -35.5345 	 -116.413 	 
C 	 46.9474 	 -33.4938 	 -115.473 	 
H 	 47.7155 	 -32.8003 	 -115.176 	 
H 	 46.146 	 -33.5141 	 -114.77 	 
H 	 46.4577 	 -33.1127 	 -116.293 	 
H 	 44.8894 	 -36.7263 	 -121.596 	 
H 	 51.9995 	 -37.8359 	 -117.21 	 
