34

S 	 -62.2358 	 3.08623 	 -17.9835 	 
C 	 -62.771 	 3.06433 	 -16.3156 	 
C 	 -63.4437 	 1.86711 	 -16.0754 	 
C 	 -63.3186 	 0.921401 	 -17.0649 	 
C 	 -62.6862 	 1.45939 	 -18.1699 	 
H 	 -63.6883 	 -0.124193 	 -16.983 	 
C 	 -64.2814 	 1.6213 	 -14.7634 	 
H 	 -64.5468 	 0.551009 	 -14.7814 	 
H 	 -65.2462 	 2.04286 	 -14.9328 	 
C 	 -63.6167 	 2.05009 	 -13.4487 	 
H 	 -63.752 	 3.13092 	 -13.36 	 
H 	 -64.2166 	 1.62463 	 -12.6722 	 
C 	 -62.1534 	 1.68581 	 -13.2269 	 
H 	 -61.5722 	 2.0472 	 -14.0962 	 
H 	 -61.6654 	 2.06517 	 -12.323 	 
H 	 -62.0701 	 0.572881 	 -13.1213 	 
S 	 -60.4483 	 0.690092 	 -19.679 	 
C 	 -60.7159 	 -0.159115 	 -21.155 	 
C 	 -61.9794 	 -0.663411 	 -21.2785 	 
C 	 -62.8106 	 -0.227218 	 -20.1612 	 
C 	 -62.1553 	 0.735794 	 -19.3373 	 
H 	 -62.2277 	 -1.30052 	 -22.1235 	 
C 	 -64.2646 	 -0.582177 	 -20.0383 	 
H 	 -64.6427 	 -0.724036 	 -21.0688 	 
H 	 -64.7943 	 0.227828 	 -19.5666 	 
C 	 -64.3445 	 -1.93959 	 -19.188 	 
H 	 -65.4277 	 -2.31476 	 -19.0796 	 
H 	 -63.9461 	 -1.8283 	 -18.1674 	 
C 	 -63.6275 	 -3.05158 	 -19.9453 	 
H 	 -63.7536 	 -4.03705 	 -19.4567 	 
H 	 -62.5612 	 -2.96757 	 -19.7608 	 
H 	 -63.627 	 -2.96894 	 -21.0221 	 
H 	 -62.6721 	 3.82891 	 -15.6469 	 
H 	 -59.8637 	 -0.375007 	 -21.776 	 
