34

S 	 -144.787 	 27.8329 	 -18.6858 	 
C 	 -146.1 	 26.7715 	 -18.2803 	 
C 	 -145.692 	 25.483 	 -17.9995 	 
C 	 -144.279 	 25.3476 	 -18.0477 	 
C 	 -143.654 	 26.5595 	 -18.2994 	 
H 	 -143.576 	 24.4941 	 -17.9517 	 
C 	 -146.542 	 24.2163 	 -17.7338 	 
H 	 -146.082 	 23.6289 	 -16.9541 	 
H 	 -146.511 	 23.6832 	 -18.6479 	 
C 	 -148.042 	 24.3636 	 -17.3678 	 
H 	 -148.094 	 25.159 	 -16.6313 	 
H 	 -148.743 	 24.6495 	 -18.1523 	 
C 	 -148.54 	 23.0804 	 -16.6309 	 
H 	 -148.053 	 22.9774 	 -15.6552 	 
H 	 -149.595 	 23.1972 	 -16.3479 	 
H 	 -148.401 	 22.155 	 -17.2542 	 
S 	 -141.836 	 27.3834 	 -20.1717 	 
C 	 -140.118 	 27.5074 	 -19.7271 	 
C 	 -139.975 	 27.2258 	 -18.4052 	 
C 	 -141.139 	 26.7602 	 -17.7052 	 
C 	 -142.249 	 26.9695 	 -18.4799 	 
H 	 -138.943 	 27.2102 	 -18.1145 	 
C 	 -141.081 	 26.254 	 -16.2842 	 
H 	 -140.647 	 25.2602 	 -16.4418 	 
H 	 -142.093 	 26.2695 	 -15.8945 	 
C 	 -140.187 	 27.0576 	 -15.337 	 
H 	 -140.562 	 28.0285 	 -15.1567 	 
H 	 -139.226 	 27.1777 	 -15.799 	 
C 	 -140.023 	 26.3924 	 -13.9901 	 
H 	 -139.355 	 27.018 	 -13.3622 	 
H 	 -139.627 	 25.3946 	 -14.1548 	 
H 	 -140.866 	 26.3204 	 -13.307 	 
H 	 -147.193 	 27.0488 	 -18.2987 	 
H 	 -139.45 	 27.8837 	 -20.4463 	 
