34

S 	 -63.8167 	 15.2061 	 -105.754 	 
C 	 -64.4024 	 15.4177 	 -104.102 	 
C 	 -63.9716 	 14.4139 	 -103.296 	 
C 	 -63.2107 	 13.4058 	 -103.96 	 
C 	 -62.9783 	 13.6313 	 -105.316 	 
H 	 -62.7649 	 12.4701 	 -103.495 	 
C 	 -64.3769 	 14.3873 	 -101.847 	 
H 	 -64.6178 	 15.4249 	 -101.62 	 
H 	 -63.5487 	 14.0522 	 -101.285 	 
C 	 -65.6363 	 13.6336 	 -101.54 	 
H 	 -66.4383 	 13.9873 	 -102.245 	 
H 	 -65.5005 	 12.5819 	 -101.784 	 
C 	 -66.069 	 13.7547 	 -100.155 	 
H 	 -66.9111 	 13.1038 	 -99.89 	 
H 	 -65.2706 	 13.4249 	 -99.4642 	 
H 	 -66.2723 	 14.8022 	 -100.059 	 
S 	 -62.2445 	 13.4885 	 -107.926 	 
C 	 -60.8939 	 12.4937 	 -108.421 	 
C 	 -60.6398 	 11.5342 	 -107.459 	 
C 	 -61.2586 	 11.7804 	 -106.227 	 
C 	 -62.148 	 12.8805 	 -106.272 	 
H 	 -59.9843 	 10.6732 	 -107.723 	 
C 	 -61.038 	 10.8308 	 -105.018 	 
H 	 -60.9891 	 11.4166 	 -104.082 	 
H 	 -60.2052 	 10.2211 	 -104.971 	 
C 	 -62.2429 	 9.93188 	 -104.775 	 
H 	 -63.0785 	 10.5338 	 -104.464 	 
H 	 -62.0805 	 9.15838 	 -103.98 	 
C 	 -62.8665 	 9.31412 	 -106.03 	 
H 	 -63.7307 	 8.79915 	 -105.797 	 
H 	 -62.0818 	 8.74069 	 -106.443 	 
H 	 -63.1251 	 10.0905 	 -106.715 	 
H 	 -65.0159 	 16.2606 	 -103.865 	 
H 	 -60.466 	 12.5105 	 -109.407 	 
