34

S 	 -40.1547 	 -42.1049 	 -77.3947 	 
C 	 -40.6951 	 -40.5735 	 -76.9088 	 
C 	 -39.8477 	 -39.9856 	 -75.9784 	 
C 	 -38.7386 	 -40.7951 	 -75.6733 	 
C 	 -38.6673 	 -41.9472 	 -76.4593 	 
H 	 -37.8644 	 -40.5501 	 -75.0606 	 
C 	 -39.9219 	 -38.5407 	 -75.5154 	 
H 	 -40.8625 	 -38.1294 	 -75.9012 	 
H 	 -39.1588 	 -37.931 	 -75.9249 	 
C 	 -39.7667 	 -38.319 	 -73.908 	 
H 	 -40.4729 	 -38.9892 	 -73.4142 	 
H 	 -38.7943 	 -38.7703 	 -73.6395 	 
C 	 -39.9117 	 -36.8457 	 -73.4635 	 
H 	 -39.2528 	 -36.2224 	 -73.9802 	 
H 	 -40.8657 	 -36.4274 	 -73.6255 	 
H 	 -39.7289 	 -36.6416 	 -72.3607 	 
S 	 -38.1588 	 -44.7167 	 -76.6107 	 
C 	 -36.6325 	 -45.3983 	 -76.1007 	 
C 	 -35.6552 	 -44.3969 	 -76.138 	 
C 	 -36.2485 	 -43.046 	 -76.1217 	 
C 	 -37.6695 	 -43.0415 	 -76.4119 	 
H 	 -34.5564 	 -44.5497 	 -75.9264 	 
C 	 -35.3562 	 -41.7866 	 -75.94 	 
H 	 -34.4167 	 -42.237 	 -75.7164 	 
H 	 -35.6479 	 -41.2459 	 -75.0117 	 
C 	 -35.1767 	 -40.8393 	 -77.1391 	 
H 	 -36.1311 	 -40.3916 	 -77.5309 	 
H 	 -34.842 	 -41.5512 	 -77.9213 	 
C 	 -34.1019 	 -39.799 	 -76.7893 	 
H 	 -33.1855 	 -40.1871 	 -76.4736 	 
H 	 -34.432 	 -39.1312 	 -76.0085 	 
H 	 -33.8501 	 -39.1799 	 -77.6868 	 
H 	 -41.5214 	 -40.0954 	 -77.2984 	 
H 	 -36.4534 	 -46.4816 	 -76.241 	 
