34

S 	 -53.662 	 22.1887 	 34.208 	 
C 	 -52.0036 	 22.4491 	 34.6616 	 
C 	 -51.2509 	 21.3961 	 34.3154 	 
C 	 -51.9767 	 20.2231 	 33.9218 	 
C 	 -53.2895 	 20.5587 	 33.6753 	 
H 	 -51.5724 	 19.2483 	 33.6092 	 
C 	 -49.7875 	 21.3722 	 34.3711 	 
H 	 -49.4046 	 20.4426 	 34.7632 	 
H 	 -49.596 	 22.1754 	 35.0778 	 
C 	 -49.0689 	 21.6563 	 33.0253 	 
H 	 -49.223 	 22.6892 	 32.6623 	 
H 	 -48.0086 	 21.4403 	 33.1178 	 
C 	 -49.3461 	 20.7337 	 31.957 	 
H 	 -48.4448 	 20.7176 	 31.3356 	 
H 	 -49.3566 	 19.7592 	 32.3918 	 
H 	 -50.2606 	 20.9854 	 31.409 	 
S 	 -55.9387 	 19.6735 	 34.1204 	 
C 	 -56.5527 	 18.3185 	 33.1479 	 
C 	 -55.6444 	 17.9919 	 32.1537 	 
C 	 -54.4038 	 18.7606 	 32.1874 	 
C 	 -54.3803 	 19.7038 	 33.2289 	 
H 	 -55.9371 	 17.286 	 31.398 	 
C 	 -53.396 	 18.5297 	 31.1211 	 
H 	 -53.8624 	 17.9588 	 30.3941 	 
H 	 -52.5957 	 17.9371 	 31.5955 	 
C 	 -52.8607 	 19.801 	 30.4298 	 
H 	 -52.4867 	 20.5599 	 31.1235 	 
H 	 -53.8111 	 20.2511 	 29.9836 	 
C 	 -51.7058 	 19.4468 	 29.4571 	 
H 	 -51.9832 	 18.7638 	 28.5817 	 
H 	 -50.8415 	 19.052 	 29.8862 	 
H 	 -51.2978 	 20.3471 	 28.9309 	 
H 	 -51.546 	 23.328 	 34.9023 	 
H 	 -57.4602 	 17.7755 	 33.2486 	 
