34

S 	 -104.803 	 61.8791 	 -98.8978 	 
C 	 -105.782 	 60.5267 	 -99.5108 	 
C 	 -105.145 	 59.9105 	 -100.62 	 
C 	 -103.806 	 60.4391 	 -100.865 	 
C 	 -103.481 	 61.5031 	 -100.007 	 
H 	 -103.138 	 60.0548 	 -101.648 	 
C 	 -105.753 	 58.6693 	 -101.281 	 
H 	 -105.561 	 58.7365 	 -102.337 	 
H 	 -106.841 	 58.8218 	 -101.287 	 
C 	 -105.535 	 57.2944 	 -100.53 	 
H 	 -105.843 	 57.3661 	 -99.5083 	 
H 	 -106.14 	 56.5179 	 -100.949 	 
C 	 -104.088 	 56.8507 	 -100.457 	 
H 	 -103.588 	 57.09 	 -101.403 	 
H 	 -103.554 	 57.4816 	 -99.7046 	 
H 	 -104.019 	 55.8699 	 -100.04 	 
S 	 -102.515 	 63.9335 	 -100.852 	 
C 	 -100.812 	 64.1369 	 -101.064 	 
C 	 -100.169 	 63.1438 	 -100.382 	 
C 	 -101.023 	 62.1886 	 -99.7506 	 
C 	 -102.316 	 62.3916 	 -100.107 	 
H 	 -99.1142 	 63.153 	 -100.309 	 
C 	 -100.551 	 61.0089 	 -98.9042 	 
H 	 -101.325 	 60.6315 	 -98.2056 	 
H 	 -99.6449 	 61.2632 	 -98.3144 	 
C 	 -100.165 	 59.8449 	 -99.8225 	 
H 	 -99.4339 	 60.1198 	 -100.499 	 
H 	 -101.049 	 59.5245 	 -100.424 	 
C 	 -99.6746 	 58.6141 	 -98.9944 	 
H 	 -100.249 	 58.5033 	 -98.1135 	 
H 	 -98.6124 	 58.6586 	 -98.7465 	 
H 	 -99.6062 	 57.7532 	 -99.6125 	 
H 	 -106.665 	 60.0923 	 -99.0051 	 
H 	 -100.309 	 64.9647 	 -101.517 	 
