34

S 	 -90.5015 	 -6.01753 	 -112.993 	 
C 	 -91.5634 	 -7.37852 	 -113.388 	 
C 	 -92.5055 	 -7.00688 	 -114.26 	 
C 	 -92.3786 	 -5.63579 	 -114.684 	 
C 	 -91.2682 	 -4.96705 	 -114.229 	 
H 	 -92.9774 	 -5.07212 	 -115.344 	 
C 	 -93.7053 	 -7.819 	 -114.551 	 
H 	 -93.5069 	 -8.7323 	 -114.095 	 
H 	 -93.7088 	 -7.97881 	 -115.638 	 
C 	 -95.0863 	 -7.19124 	 -114.041 	 
H 	 -95.328 	 -6.14673 	 -114.481 	 
H 	 -95.8854 	 -7.83269 	 -114.404 	 
C 	 -95.3164 	 -7.05758 	 -112.572 	 
H 	 -96.2299 	 -6.51031 	 -112.416 	 
H 	 -95.4366 	 -8.02282 	 -112.077 	 
H 	 -94.5693 	 -6.53652 	 -111.941 	 
S 	 -91.8573 	 -2.75628 	 -115.845 	 
C 	 -91.2683 	 -1.18608 	 -115.42 	 
C 	 -90.4969 	 -1.20787 	 -114.317 	 
C 	 -90.3961 	 -2.54884 	 -113.736 	 
C 	 -91.1108 	 -3.51075 	 -114.475 	 
H 	 -90.0405 	 -0.267983 	 -113.923 	 
C 	 -89.6335 	 -2.79118 	 -112.452 	 
H 	 -90.1532 	 -3.49125 	 -111.858 	 
H 	 -89.5459 	 -1.91102 	 -111.827 	 
C 	 -88.1987 	 -3.4246 	 -112.627 	 
H 	 -88.3408 	 -4.29436 	 -113.315 	 
H 	 -87.895 	 -3.78845 	 -111.616 	 
C 	 -87.1156 	 -2.50927 	 -113.282 	 
H 	 -87.4486 	 -1.98513 	 -114.184 	 
H 	 -86.2999 	 -3.11332 	 -113.462 	 
H 	 -86.8426 	 -1.77009 	 -112.561 	 
H 	 -91.632 	 -8.30306 	 -112.838 	 
H 	 -91.3339 	 -0.371187 	 -116.125 	 
