34

S 	 -96.8392 	 -23.0825 	 -66.9011 	 
C 	 -96.9038 	 -21.3486 	 -66.7517 	 
C 	 -96.1731 	 -20.8638 	 -65.6934 	 
C 	 -95.5088 	 -21.9549 	 -65.0118 	 
C 	 -95.7648 	 -23.1858 	 -65.5431 	 
H 	 -94.842 	 -21.9257 	 -64.1196 	 
C 	 -96.1548 	 -19.4647 	 -65.2815 	 
H 	 -96.0851 	 -18.9594 	 -66.2174 	 
H 	 -95.2032 	 -19.3471 	 -64.7189 	 
C 	 -97.3457 	 -19.0593 	 -64.3654 	 
H 	 -97.3343 	 -18.0219 	 -64.0611 	 
H 	 -98.2826 	 -19.0157 	 -64.8313 	 
C 	 -97.4689 	 -19.8285 	 -63.0254 	 
H 	 -98.3495 	 -19.3746 	 -62.5876 	 
H 	 -97.5773 	 -20.8383 	 -63.2686 	 
H 	 -96.6572 	 -19.6984 	 -62.3138 	 
S 	 -94.2366 	 -25.0699 	 -66.6854 	 
C 	 -93.6053 	 -26.379 	 -65.8292 	 
C 	 -93.9284 	 -26.3305 	 -64.5354 	 
C 	 -94.6869 	 -25.165 	 -64.2243 	 
C 	 -95.0516 	 -24.4374 	 -65.3431 	 
H 	 -93.3735 	 -27.0531 	 -63.9095 	 
C 	 -95.2525 	 -24.8376 	 -62.8318 	 
H 	 -96.3442 	 -24.7926 	 -62.8149 	 
H 	 -95.0461 	 -23.7703 	 -62.6727 	 
C 	 -94.6858 	 -25.5803 	 -61.6646 	 
H 	 -93.6023 	 -25.292 	 -61.6285 	 
H 	 -94.5904 	 -26.5923 	 -61.9374 	 
C 	 -95.4307 	 -25.3884 	 -60.3514 	 
H 	 -96.4597 	 -25.595 	 -60.5865 	 
H 	 -95.1859 	 -24.4374 	 -59.8702 	 
H 	 -95.0877 	 -26.2653 	 -59.7852 	 
H 	 -97.4634 	 -20.6986 	 -67.4479 	 
H 	 -93.0169 	 -27.1319 	 -66.2977 	 
