34

S 	 -37.3874 	 -10.3778 	 19.5268 	 
C 	 -37.724 	 -11.4713 	 20.8099 	 
C 	 -38.1395 	 -12.703 	 20.2589 	 
C 	 -38.1129 	 -12.7651 	 18.8365 	 
C 	 -37.8076 	 -11.5472 	 18.2644 	 
H 	 -38.4584 	 -13.6012 	 18.2528 	 
C 	 -38.5336 	 -13.8398 	 21.1904 	 
H 	 -39.5445 	 -14.3105 	 20.8003 	 
H 	 -38.5779 	 -13.4188 	 22.2448 	 
C 	 -37.6408 	 -15.091 	 21.3628 	 
H 	 -38.1141 	 -15.8657 	 21.9919 	 
H 	 -37.437 	 -15.3696 	 20.3551 	 
C 	 -36.2592 	 -14.7414 	 22.0286 	 
H 	 -36.3488 	 -14.1385 	 22.9429 	 
H 	 -35.5729 	 -15.5661 	 22.2068 	 
H 	 -35.6429 	 -14.0641 	 21.4795 	 
S 	 -38.7789 	 -11.817 	 15.6858 	 
C 	 -37.9505 	 -11.0813 	 14.3755 	 
C 	 -36.7582 	 -10.615 	 14.8402 	 
C 	 -36.4306 	 -10.9314 	 16.1519 	 
C 	 -37.5405 	 -11.413 	 16.8356 	 
H 	 -36.0998 	 -10.1924 	 14.1433 	 
C 	 -35.091 	 -10.5397 	 16.7723 	 
H 	 -34.3024 	 -11.0839 	 16.1732 	 
H 	 -35.1976 	 -10.8794 	 17.855 	 
C 	 -34.8182 	 -8.93273 	 16.7873 	 
H 	 -34.7756 	 -8.59626 	 15.7484 	 
H 	 -33.8781 	 -8.64203 	 17.1752 	 
C 	 -35.8301 	 -8.02578 	 17.5289 	 
H 	 -36.8982 	 -8.12956 	 17.2359 	 
H 	 -35.5025 	 -6.99297 	 17.506 	 
H 	 -35.7651 	 -8.35155 	 18.5379 	 
H 	 -37.636 	 -11.2279 	 21.8178 	 
H 	 -38.4155 	 -10.9624 	 13.3947 	 
