34

S 	 -49.5912 	 8.17491 	 -16.2058 	 
C 	 -48.2822 	 7.88365 	 -17.3548 	 
C 	 -48.6286 	 6.9266 	 -18.3069 	 
C 	 -49.8438 	 6.25011 	 -18.0247 	 
C 	 -50.5799 	 6.89405 	 -17.0221 	 
H 	 -50.3782 	 5.57444 	 -18.6576 	 
C 	 -47.7646 	 6.4614 	 -19.3835 	 
H 	 -48.3133 	 5.79828 	 -20.0159 	 
H 	 -46.8365 	 5.99031 	 -18.9411 	 
C 	 -47.3497 	 7.62372 	 -20.3505 	 
H 	 -46.994 	 8.4217 	 -19.7293 	 
H 	 -46.4996 	 7.25403 	 -21.0056 	 
C 	 -48.4838 	 8.17371 	 -21.1741 	 
H 	 -48.1026 	 9.0041 	 -21.7802 	 
H 	 -48.8896 	 7.36908 	 -21.812 	 
H 	 -49.155 	 8.68059 	 -20.4866 	 
S 	 -52.9494 	 8.36449 	 -17.1075 	 
C 	 -54.4516 	 7.46984 	 -17.1498 	 
C 	 -54.2122 	 6.15323 	 -16.8429 	 
C 	 -52.8584 	 5.80129 	 -16.7683 	 
C 	 -51.9691 	 6.86957 	 -16.7952 	 
H 	 -55.0273 	 5.53687 	 -16.7944 	 
C 	 -52.4625 	 4.40749 	 -16.5374 	 
H 	 -51.4567 	 4.20319 	 -16.8428 	 
H 	 -53.0292 	 3.74844 	 -17.2476 	 
C 	 -52.6747 	 3.85486 	 -15.0568 	 
H 	 -52.0945 	 4.32964 	 -14.2844 	 
H 	 -52.1959 	 2.90367 	 -14.9514 	 
C 	 -54.1683 	 3.65674 	 -14.6081 	 
H 	 -54.6105 	 4.60283 	 -14.2311 	 
H 	 -54.1567 	 2.96751 	 -13.8123 	 
H 	 -54.9079 	 3.1922 	 -15.3303 	 
H 	 -47.3903 	 8.51811 	 -17.5117 	 
H 	 -55.3974 	 8.00137 	 -17.2771 	 
