34

S 	 37.305 	 -7.95735 	 -115.029 	 
C 	 39.0082 	 -7.55747 	 -115.356 	 
C 	 39.341 	 -6.37891 	 -114.744 	 
C 	 38.2614 	 -5.82399 	 -113.893 	 
C 	 37.1204 	 -6.59924 	 -113.843 	 
H 	 38.4274 	 -5.00338 	 -113.244 	 
C 	 40.7364 	 -5.75255 	 -114.683 	 
H 	 41.5318 	 -6.45748 	 -114.883 	 
H 	 40.9009 	 -5.38439 	 -113.709 	 
C 	 40.9247 	 -4.59891 	 -115.76 	 
H 	 40.7044 	 -5.13295 	 -116.703 	 
H 	 40.2181 	 -3.78816 	 -115.611 	 
C 	 42.3459 	 -4.08923 	 -116.025 	 
H 	 42.6443 	 -3.48212 	 -115.175 	 
H 	 42.9736 	 -4.96295 	 -115.902 	 
H 	 42.5021 	 -3.55364 	 -116.941 	 
S 	 34.3856 	 -6.24649 	 -114.1 	 
C 	 33.3893 	 -5.76348 	 -112.75 	 
C 	 34.2029 	 -5.51963 	 -111.654 	 
C 	 35.5779 	 -5.74825 	 -111.882 	 
C 	 35.8115 	 -6.26606 	 -113.174 	 
H 	 33.7117 	 -5.1789 	 -110.81 	 
C 	 36.5967 	 -5.79013 	 -110.766 	 
H 	 36.2272 	 -5.10273 	 -109.94 	 
H 	 37.3342 	 -5.14555 	 -111.204 	 
C 	 37.008 	 -7.15334 	 -110.34 	 
H 	 37.8671 	 -7.06015 	 -109.67 	 
H 	 37.4539 	 -7.63348 	 -111.246 	 
C 	 35.8451 	 -8.01686 	 -109.758 	 
H 	 36.3129 	 -9.06853 	 -109.524 	 
H 	 34.9358 	 -8.04208 	 -110.349 	 
H 	 35.5551 	 -7.51484 	 -108.754 	 
H 	 39.6547 	 -8.19688 	 -115.976 	 
H 	 32.3605 	 -5.48807 	 -112.843 	 
