34

S 	 -31.6227 	 -49.3023 	 -75.6519 	 
C 	 -30.0719 	 -49.6282 	 -76.3315 	 
C 	 -29.2377 	 -48.5264 	 -76.2069 	 
C 	 -29.9039 	 -47.363 	 -75.6764 	 
C 	 -31.2573 	 -47.5695 	 -75.4912 	 
H 	 -29.4375 	 -46.4183 	 -75.548 	 
C 	 -27.7822 	 -48.4358 	 -76.535 	 
H 	 -27.6013 	 -49.5204 	 -76.4683 	 
H 	 -27.2751 	 -48.0178 	 -75.619 	 
C 	 -27.274 	 -47.7086 	 -77.8132 	 
H 	 -26.2295 	 -47.6765 	 -77.7711 	 
H 	 -27.5442 	 -48.2968 	 -78.6745 	 
C 	 -27.7408 	 -46.2503 	 -78.0585 	 
H 	 -28.8097 	 -46.2339 	 -78.2783 	 
H 	 -27.525 	 -45.6618 	 -77.1644 	 
H 	 -27.1966 	 -45.8497 	 -78.9214 	 
S 	 -33.5475 	 -47.0666 	 -73.9628 	 
C 	 -33.7995 	 -45.447 	 -73.4519 	 
C 	 -33.1582 	 -44.5259 	 -74.2253 	 
C 	 -32.3204 	 -45.2297 	 -75.1837 	 
C 	 -32.2366 	 -46.6282 	 -75.0459 	 
H 	 -33.3608 	 -43.429 	 -74.1408 	 
C 	 -31.4227 	 -44.543 	 -76.1953 	 
H 	 -31.0371 	 -45.2651 	 -76.927 	 
H 	 -30.6077 	 -44.4428 	 -75.547 	 
C 	 -31.892 	 -43.2555 	 -76.8984 	 
H 	 -31.9627 	 -42.4169 	 -76.1639 	 
H 	 -32.8092 	 -43.4431 	 -77.4681 	 
C 	 -30.9762 	 -42.9384 	 -78.0876 	 
H 	 -31.5662 	 -42.3553 	 -78.8064 	 
H 	 -30.6935 	 -43.8026 	 -78.61 	 
H 	 -30.1377 	 -42.3955 	 -77.7639 	 
H 	 -29.8653 	 -50.5242 	 -76.7969 	 
H 	 -34.6692 	 -45.3061 	 -72.9114 	 
