34

S 	 -132.022 	 32.418 	 -12.0323 	 
C 	 -130.703 	 31.3854 	 -12.4874 	 
C 	 -130.952 	 30.9178 	 -13.7757 	 
C 	 -132.196 	 31.2282 	 -14.2783 	 
C 	 -132.949 	 31.9708 	 -13.3893 	 
H 	 -132.675 	 30.7674 	 -15.1969 	 
C 	 -129.992 	 30.0155 	 -14.5848 	 
H 	 -129.128 	 29.5538 	 -14.0141 	 
H 	 -129.348 	 30.788 	 -15.1636 	 
C 	 -130.614 	 28.9277 	 -15.4489 	 
H 	 -131.308 	 29.3317 	 -16.1225 	 
H 	 -129.885 	 28.3646 	 -16.0908 	 
C 	 -131.335 	 27.9409 	 -14.592 	 
H 	 -130.706 	 27.1988 	 -14.1546 	 
H 	 -132.056 	 28.4501 	 -13.9652 	 
H 	 -131.902 	 27.3547 	 -15.2953 	 
S 	 -134.611 	 33.9905 	 -13.0851 	 
C 	 -136.278 	 33.8897 	 -13.4247 	 
C 	 -136.607 	 32.6136 	 -13.8169 	 
C 	 -135.488 	 31.7069 	 -13.8518 	 
C 	 -134.29 	 32.354 	 -13.5509 	 
H 	 -137.637 	 32.3044 	 -14.0381 	 
C 	 -135.667 	 30.2714 	 -14.3238 	 
H 	 -134.726 	 30.0767 	 -14.9572 	 
H 	 -136.54 	 30.1932 	 -15.0006 	 
C 	 -135.749 	 29.2645 	 -13.2093 	 
H 	 -136.521 	 29.6429 	 -12.5828 	 
H 	 -134.824 	 29.4189 	 -12.6623 	 
C 	 -135.921 	 27.8371 	 -13.6962 	 
H 	 -136.096 	 27.169 	 -12.8462 	 
H 	 -135.165 	 27.3651 	 -14.2984 	 
H 	 -136.829 	 27.81 	 -14.3226 	 
H 	 -129.784 	 31.131 	 -11.8817 	 
H 	 -137.03 	 34.6426 	 -13.4724 	 
