34

S 	 -105.139 	 -0.154952 	 -115.229 	 
C 	 -105.965 	 0.830981 	 -116.446 	 
C 	 -107.295 	 0.630452 	 -116.373 	 
C 	 -107.652 	 -0.332437 	 -115.373 	 
C 	 -106.586 	 -0.771058 	 -114.616 	 
H 	 -108.582 	 -0.747669 	 -115.174 	 
C 	 -108.269 	 1.38556 	 -117.161 	 
H 	 -109.264 	 0.989166 	 -117.175 	 
H 	 -107.963 	 1.353 	 -118.209 	 
C 	 -108.372 	 2.78033 	 -116.573 	 
H 	 -107.524 	 3.34799 	 -116.973 	 
H 	 -109.106 	 3.28206 	 -117.211 	 
C 	 -108.696 	 3.03835 	 -115.061 	 
H 	 -109.633 	 2.762 	 -114.681 	 
H 	 -107.928 	 2.53428 	 -114.361 	 
H 	 -108.672 	 4.12356 	 -114.902 	 
S 	 -105.466 	 -2.61744 	 -113.005 	 
C 	 -106.402 	 -3.21887 	 -111.62 	 
C 	 -107.632 	 -2.55976 	 -111.482 	 
C 	 -107.905 	 -1.66194 	 -112.528 	 
C 	 -106.839 	 -1.63301 	 -113.463 	 
H 	 -108.301 	 -2.8164 	 -110.657 	 
C 	 -109.231 	 -0.844867 	 -112.594 	 
H 	 -109.101 	 0.0463679 	 -113.121 	 
H 	 -109.434 	 -0.529648 	 -111.582 	 
C 	 -110.575 	 -1.41864 	 -113.104 	 
H 	 -110.405 	 -1.6081 	 -114.179 	 
H 	 -111.3 	 -0.60589 	 -113.031 	 
C 	 -111.211 	 -2.65718 	 -112.466 	 
H 	 -110.676 	 -3.60025 	 -112.596 	 
H 	 -112.122 	 -2.84644 	 -112.952 	 
H 	 -111.456 	 -2.58004 	 -111.375 	 
H 	 -105.573 	 1.45004 	 -117.209 	 
H 	 -105.963 	 -3.84386 	 -110.837 	 
