34

S 	 -100.495 	 14.7989 	 -120.921 	 
C 	 -98.9522 	 15.4087 	 -121.625 	 
C 	 -98.1376 	 14.3926 	 -122.088 	 
C 	 -98.7988 	 13.0966 	 -121.997 	 
C 	 -100.052 	 13.1393 	 -121.345 	 
H 	 -98.3549 	 12.1641 	 -122.216 	 
C 	 -96.6566 	 14.6085 	 -122.577 	 
H 	 -95.9861 	 14.027 	 -121.946 	 
H 	 -96.3627 	 15.6672 	 -122.467 	 
C 	 -96.4818 	 14.2106 	 -124.051 	 
H 	 -96.5049 	 13.1054 	 -124.159 	 
H 	 -97.3397 	 14.5829 	 -124.653 	 
C 	 -95.2353 	 14.7766 	 -124.775 	 
H 	 -95.1743 	 14.3954 	 -125.795 	 
H 	 -95.3016 	 15.8564 	 -124.88 	 
H 	 -94.2314 	 14.4658 	 -124.449 	 
S 	 -102.299 	 11.6532 	 -121.788 	 
C 	 -102.431 	 9.96881 	 -121.119 	 
C 	 -101.523 	 9.85086 	 -120.105 	 
C 	 -100.604 	 10.9528 	 -119.971 	 
C 	 -100.81 	 11.9443 	 -120.898 	 
H 	 -101.461 	 8.98108 	 -119.46 	 
C 	 -99.4679 	 10.9508 	 -119.037 	 
H 	 -99.3618 	 11.8299 	 -118.367 	 
H 	 -98.5859 	 10.9671 	 -119.676 	 
C 	 -99.2235 	 9.67744 	 -118.196 	 
H 	 -99.3942 	 8.82913 	 -118.819 	 
H 	 -99.9662 	 9.76798 	 -117.39 	 
C 	 -97.9003 	 9.77541 	 -117.437 	 
H 	 -97.7645 	 8.83288 	 -116.944 	 
H 	 -97.8366 	 10.6298 	 -116.727 	 
H 	 -97.1113 	 9.77443 	 -118.082 	 
H 	 -98.5876 	 16.3692 	 -121.741 	 
H 	 -103.127 	 9.29815 	 -121.35 	 
