34

S 	 -128.824 	 6.7315 	 -7.91253 	 
C 	 -127.128 	 6.38163 	 -7.82591 	 
C 	 -126.357 	 7.40708 	 -7.28861 	 
C 	 -127.208 	 8.56176 	 -7.05998 	 
C 	 -128.551 	 8.34469 	 -7.27203 	 
H 	 -126.811 	 9.48312 	 -6.65931 	 
C 	 -124.828 	 7.40545 	 -6.99555 	 
H 	 -124.424 	 7.76361 	 -7.99657 	 
H 	 -124.551 	 6.36583 	 -6.78019 	 
C 	 -124.356 	 8.32482 	 -5.80328 	 
H 	 -123.253 	 8.5222 	 -5.7224 	 
H 	 -124.722 	 9.35 	 -5.77501 	 
C 	 -124.694 	 7.75113 	 -4.42849 	 
H 	 -124.469 	 6.66884 	 -4.37072 	 
H 	 -124.217 	 8.29797 	 -3.69029 	 
H 	 -125.803 	 7.89531 	 -4.32796 	 
S 	 -129.607 	 10.1005 	 -5.49905 	 
C 	 -131.185 	 10.7004 	 -5.77359 	 
C 	 -131.721 	 10.4564 	 -7.01066 	 
C 	 -130.828 	 9.56109 	 -7.75044 	 
C 	 -129.695 	 9.25944 	 -6.99207 	 
H 	 -132.65 	 10.898 	 -7.26067 	 
C 	 -131.192 	 8.79682 	 -9.04475 	 
H 	 -131.6 	 7.83504 	 -8.69647 	 
H 	 -130.249 	 8.57227 	 -9.51896 	 
C 	 -132.215 	 9.40684 	 -9.98335 	 
H 	 -131.668 	 10.1581 	 -10.5787 	 
H 	 -132.995 	 9.92058 	 -9.44417 	 
C 	 -132.853 	 8.43274 	 -11.0326 	 
H 	 -133.834 	 8.70039 	 -11.4138 	 
H 	 -132.994 	 7.46921 	 -10.5349 	 
H 	 -132.145 	 8.13456 	 -11.8199 	 
H 	 -126.834 	 5.35346 	 -8.00155 	 
H 	 -131.767 	 11.3601 	 -5.08583 	 
