34

S 	 -124.375 	 34.4874 	 -109.372 	 
C 	 -124.522 	 33.6177 	 -110.852 	 
C 	 -125.696 	 33.7855 	 -111.581 	 
C 	 -126.474 	 34.7211 	 -110.892 	 
C 	 -125.977 	 35.1996 	 -109.689 	 
H 	 -127.347 	 35.1836 	 -111.178 	 
C 	 -126.109 	 33.0165 	 -112.828 	 
H 	 -125.58 	 32.08 	 -112.781 	 
H 	 -125.742 	 33.6187 	 -113.669 	 
C 	 -127.625 	 32.7329 	 -112.998 	 
H 	 -127.736 	 32.0255 	 -112.205 	 
H 	 -128.286 	 33.6104 	 -112.86 	 
C 	 -128.165 	 32.2209 	 -114.34 	 
H 	 -127.623 	 31.3576 	 -114.593 	 
H 	 -129.226 	 32.0037 	 -114.318 	 
H 	 -128.005 	 33.0058 	 -115.163 	 
S 	 -127.33 	 35.2825 	 -107.173 	 
C 	 -128.216 	 36.7897 	 -106.822 	 
C 	 -128.019 	 37.7546 	 -107.77 	 
C 	 -127.215 	 37.3314 	 -108.862 	 
C 	 -126.74 	 36.0014 	 -108.741 	 
H 	 -128.499 	 38.7384 	 -107.634 	 
C 	 -126.845 	 38.2103 	 -110.043 	 
H 	 -127.484 	 37.8189 	 -110.845 	 
H 	 -125.944 	 37.7983 	 -110.479 	 
C 	 -126.805 	 39.7397 	 -109.786 	 
H 	 -126.002 	 40.017 	 -109.035 	 
H 	 -127.824 	 40.0459 	 -109.476 	 
C 	 -126.454 	 40.4679 	 -111.044 	 
H 	 -125.412 	 40.4423 	 -111.324 	 
H 	 -126.463 	 41.4817 	 -110.759 	 
H 	 -127.108 	 40.2039 	 -111.894 	 
H 	 -123.897 	 32.7603 	 -111.039 	 
H 	 -128.654 	 37.0348 	 -105.892 	 
