34

S 	 -135.679 	 11.8874 	 -2.52411 	 
C 	 -135.593 	 12.5791 	 -0.970265 	 
C 	 -135.545 	 11.5994 	 -0.0375736 	 
C 	 -135.733 	 10.2847 	 -0.546283 	 
C 	 -135.874 	 10.25 	 -1.91108 	 
H 	 -135.747 	 9.36735 	 0.0842046 	 
C 	 -135.174 	 11.8788 	 1.3741 	 
H 	 -135.805 	 11.1785 	 1.96246 	 
H 	 -135.451 	 12.8762 	 1.74197 	 
C 	 -133.721 	 11.6436 	 1.74865 	 
H 	 -133.433 	 10.6535 	 1.65767 	 
H 	 -133.056 	 12.1969 	 1.1449 	 
C 	 -133.486 	 11.919 	 3.20502 	 
H 	 -134.298 	 11.6541 	 3.95977 	 
H 	 -132.526 	 11.6557 	 3.50263 	 
H 	 -133.427 	 13.0151 	 3.35196 	 
S 	 -135.445 	 9.27028 	 -4.54712 	 
C 	 -135.84 	 7.70388 	 -4.92394 	 
C 	 -136.379 	 7.04245 	 -3.82344 	 
C 	 -136.546 	 7.81786 	 -2.66195 	 
C 	 -136.091 	 9.12854 	 -2.84277 	 
H 	 -136.566 	 5.96005 	 -3.89103 	 
C 	 -137.007 	 7.18834 	 -1.31126 	 
H 	 -136.461 	 7.6027 	 -0.452836 	 
H 	 -136.686 	 6.13735 	 -1.2972 	 
C 	 -138.459 	 7.23852 	 -1.05856 	 
H 	 -138.573 	 6.73916 	 -0.094532 	 
H 	 -138.973 	 6.58049 	 -1.74769 	 
C 	 -139.042 	 8.68867 	 -1.09928 	 
H 	 -138.637 	 9.25716 	 -0.308601 	 
H 	 -140.121 	 8.65847 	 -1.00662 	 
H 	 -138.779 	 9.2617 	 -2.00732 	 
H 	 -135.452 	 13.6108 	 -0.700171 	 
H 	 -135.622 	 7.20596 	 -5.82154 	 
