34

S 	 -43.7105 	 15.7216 	 28.089 	 
C 	 -43.8882 	 17.4409 	 27.6175 	 
C 	 -44.6178 	 18.111 	 28.6218 	 
C 	 -44.8222 	 17.3309 	 29.7607 	 
C 	 -44.3885 	 16.015 	 29.6614 	 
H 	 -45.3823 	 17.6112 	 30.6712 	 
C 	 -45.0558 	 19.5812 	 28.6066 	 
H 	 -45.9065 	 19.6804 	 29.204 	 
H 	 -45.2665 	 19.8005 	 27.567 	 
C 	 -44.0182 	 20.5777 	 28.9578 	 
H 	 -43.0362 	 20.2882 	 28.6113 	 
H 	 -44.0778 	 21.5061 	 28.4696 	 
C 	 -43.7442 	 20.7014 	 30.4885 	 
H 	 -43.7975 	 19.744 	 30.9455 	 
H 	 -42.7764 	 21.2226 	 30.691 	 
H 	 -44.5632 	 21.1837 	 31.0511 	 
S 	 -46.2759 	 14.3774 	 30.7988 	 
C 	 -45.8989 	 13.5972 	 32.3233 	 
C 	 -44.5202 	 13.765 	 32.609 	 
C 	 -43.83 	 14.5215 	 31.6401 	 
C 	 -44.6739 	 15.0108 	 30.6411 	 
H 	 -44.058 	 13.4559 	 33.5808 	 
C 	 -42.4271 	 15.0054 	 31.8587 	 
H 	 -42.0068 	 15.2847 	 30.9126 	 
H 	 -41.728 	 14.1537 	 32.181 	 
C 	 -42.3203 	 16.185 	 32.826 	 
H 	 -42.7857 	 15.9931 	 33.823 	 
H 	 -42.9527 	 16.9992 	 32.4584 	 
C 	 -40.8843 	 16.7552 	 32.9046 	 
H 	 -40.2374 	 15.9111 	 33.1724 	 
H 	 -40.7461 	 17.4559 	 33.7359 	 
H 	 -40.4808 	 17.1763 	 31.9956 	 
H 	 -43.6444 	 17.9615 	 26.6734 	 
H 	 -46.6924 	 13.071 	 32.8324 	 
