34

S 	 -100.156 	 2.01072 	 -123.687 	 
C 	 -101.201 	 2.32931 	 -122.272 	 
C 	 -101.278 	 1.21753 	 -121.443 	 
C 	 -100.509 	 0.103613 	 -121.935 	 
C 	 -99.7082 	 0.417781 	 -122.985 	 
H 	 -100.49 	 -0.882215 	 -121.516 	 
C 	 -102.124 	 1.1813 	 -120.195 	 
H 	 -102.44 	 0.239688 	 -119.909 	 
H 	 -103.038 	 1.72094 	 -120.414 	 
C 	 -101.364 	 1.79623 	 -118.955 	 
H 	 -101.773 	 1.36916 	 -117.982 	 
H 	 -100.307 	 1.41049 	 -118.983 	 
C 	 -101.538 	 3.34148 	 -118.927 	 
H 	 -100.941 	 3.79106 	 -119.726 	 
H 	 -102.61 	 3.54941 	 -119.005 	 
H 	 -101.305 	 3.76791 	 -117.992 	 
S 	 -99.2805 	 -1.06669 	 -125.266 	 
C 	 -98.1024 	 -2.33747 	 -125.306 	 
C 	 -97.2883 	 -2.27208 	 -124.213 	 
C 	 -97.7962 	 -1.35386 	 -123.189 	 
C 	 -98.802 	 -0.519053 	 -123.652 	 
H 	 -96.4352 	 -2.97671 	 -124.153 	 
C 	 -97.2352 	 -1.35341 	 -121.798 	 
H 	 -96.4537 	 -2.19747 	 -121.749 	 
H 	 -98.0635 	 -1.61851 	 -121.179 	 
C 	 -96.6548 	 0.0282818 	 -121.355 	 
H 	 -96.1374 	 -0.416968 	 -120.444 	 
H 	 -97.5772 	 0.701493 	 -121.174 	 
C 	 -95.54 	 0.668304 	 -122.23 	 
H 	 -94.6968 	 -0.0405202 	 -122.074 	 
H 	 -95.2485 	 1.55024 	 -121.731 	 
H 	 -95.6012 	 0.637352 	 -123.365 	 
H 	 -101.819 	 3.23275 	 -122.253 	 
H 	 -97.9495 	 -3.0043 	 -126.105 	 
