34

S 	 -52.855 	 -50.2882 	 -80.2954 	 
C 	 -53.6121 	 -50.4013 	 -81.8614 	 
C 	 -53.8742 	 -49.1047 	 -82.3527 	 
C 	 -53.3753 	 -48.0658 	 -81.529 	 
C 	 -52.8268 	 -48.5206 	 -80.3444 	 
H 	 -53.2582 	 -47.0577 	 -81.8672 	 
C 	 -54.5505 	 -48.7957 	 -83.6756 	 
H 	 -53.742 	 -48.4873 	 -84.3421 	 
H 	 -55.2848 	 -48.0395 	 -83.7093 	 
C 	 -55.1655 	 -49.9841 	 -84.452 	 
H 	 -55.303 	 -49.8134 	 -85.4787 	 
H 	 -54.6242 	 -50.9383 	 -84.2257 	 
C 	 -56.5747 	 -50.2055 	 -83.8622 	 
H 	 -57.2822 	 -49.368 	 -84.1634 	 
H 	 -56.8602 	 -51.1876 	 -84.2233 	 
H 	 -56.6116 	 -50.337 	 -82.7933 	 
S 	 -50.8962 	 -48.2347 	 -78.5007 	 
C 	 -50.5956 	 -46.695 	 -77.7367 	 
C 	 -51.5163 	 -45.7798 	 -78.1349 	 
C 	 -52.5826 	 -46.3486 	 -78.9498 	 
C 	 -52.2971 	 -47.6737 	 -79.2799 	 
H 	 -51.5241 	 -44.7653 	 -77.8968 	 
C 	 -53.7679 	 -45.53 	 -79.2825 	 
H 	 -54.3191 	 -45.4419 	 -78.3253 	 
H 	 -54.4149 	 -46.0963 	 -79.9263 	 
C 	 -53.441 	 -44.095 	 -79.881 	 
H 	 -52.5893 	 -44.0374 	 -80.6089 	 
H 	 -53.2607 	 -43.28 	 -79.1105 	 
C 	 -54.7329 	 -43.6944 	 -80.6377 	 
H 	 -54.5294 	 -42.8398 	 -81.2471 	 
H 	 -55.5172 	 -43.4048 	 -79.9626 	 
H 	 -55.0431 	 -44.4664 	 -81.312 	 
H 	 -53.808 	 -51.3535 	 -82.3312 	 
H 	 -49.7716 	 -46.455 	 -77.0107 	 
