34

S 	 -106.615 	 52.1052 	 -81.3593 	 
C 	 -105.29 	 52.635 	 -82.3718 	 
C 	 -105.385 	 52.1731 	 -83.6214 	 
C 	 -106.367 	 51.1628 	 -83.6869 	 
C 	 -107.032 	 50.92 	 -82.5316 	 
H 	 -106.623 	 50.594 	 -84.5776 	 
C 	 -104.535 	 52.7913 	 -84.7504 	 
H 	 -103.63 	 53.1808 	 -84.3337 	 
H 	 -104.992 	 53.7038 	 -85.2418 	 
C 	 -104.2 	 51.8384 	 -85.9602 	 
H 	 -103.54 	 51.0611 	 -85.6142 	 
H 	 -105.036 	 51.2345 	 -86.2595 	 
C 	 -103.648 	 52.5531 	 -87.2043 	 
H 	 -103.369 	 51.8614 	 -87.9162 	 
H 	 -104.52 	 53.0018 	 -87.728 	 
H 	 -102.874 	 53.2813 	 -87.0205 	 
S 	 -109.713 	 50.7401 	 -82.6643 	 
C 	 -110.496 	 49.1337 	 -82.3252 	 
C 	 -109.56 	 48.1211 	 -82.238 	 
C 	 -108.212 	 48.5793 	 -82.2335 	 
C 	 -108.148 	 49.9782 	 -82.3878 	 
H 	 -109.962 	 47.1082 	 -82.1051 	 
C 	 -107.074 	 47.637 	 -81.9282 	 
H 	 -106.282 	 48.3692 	 -81.8622 	 
H 	 -106.885 	 47.0418 	 -82.8294 	 
C 	 -107.193 	 46.7861 	 -80.6815 	 
H 	 -106.167 	 46.6065 	 -80.4336 	 
H 	 -107.705 	 45.8388 	 -80.97 	 
C 	 -107.955 	 47.3473 	 -79.4464 	 
H 	 -109.056 	 47.3604 	 -79.6139 	 
H 	 -107.648 	 48.3804 	 -79.2797 	 
H 	 -107.716 	 46.8978 	 -78.4967 	 
H 	 -104.486 	 53.2985 	 -82.1579 	 
H 	 -111.559 	 48.8796 	 -82.3922 	 
