34

S 	 -115.139 	 48.5168 	 -120.869 	 
C 	 -114.323 	 47.0752 	 -120.241 	 
C 	 -113.093 	 47.3425 	 -119.613 	 
C 	 -113.028 	 48.7838 	 -119.426 	 
C 	 -114.035 	 49.5426 	 -120.073 	 
H 	 -112.226 	 49.3034 	 -118.879 	 
C 	 -112.213 	 46.3663 	 -118.811 	 
H 	 -112.462 	 45.3425 	 -119.02 	 
H 	 -112.325 	 46.6078 	 -117.81 	 
C 	 -110.717 	 46.4489 	 -119.251 	 
H 	 -110.441 	 47.4834 	 -119.284 	 
H 	 -110.1 	 45.9068 	 -118.563 	 
C 	 -110.397 	 45.9106 	 -120.641 	 
H 	 -110.96 	 46.5774 	 -121.376 	 
H 	 -109.35 	 45.898 	 -120.901 	 
H 	 -110.971 	 44.9499 	 -120.794 	 
S 	 -114.026 	 51.8647 	 -121.619 	 
C 	 -113.848 	 53.4539 	 -120.919 	 
C 	 -113.863 	 53.375 	 -119.541 	 
C 	 -113.99 	 52.0106 	 -119.071 	 
C 	 -114.042 	 51.0485 	 -120.082 	 
H 	 -113.818 	 54.2143 	 -118.901 	 
C 	 -113.969 	 51.8365 	 -117.539 	 
H 	 -114.14 	 52.8245 	 -117.054 	 
H 	 -113.001 	 51.5758 	 -117.158 	 
C 	 -114.918 	 50.784 	 -116.923 	 
H 	 -114.645 	 50.6659 	 -115.883 	 
H 	 -114.7 	 49.8616 	 -117.389 	 
C 	 -116.375 	 51.2295 	 -117.152 	 
H 	 -116.464 	 51.4297 	 -118.215 	 
H 	 -116.483 	 52.1227 	 -116.647 	 
H 	 -117.009 	 50.4828 	 -116.72 	 
H 	 -114.652 	 46.0602 	 -120.277 	 
H 	 -113.676 	 54.4267 	 -121.397 	 
