34

S 	 19.8633 	 -19.9101 	 -122.847 	 
C 	 20.9378 	 -19.7726 	 -124.243 	 
C 	 22.2875 	 -20.0312 	 -123.959 	 
C 	 22.4148 	 -20.1312 	 -122.527 	 
C 	 21.2458 	 -20.0402 	 -121.828 	 
H 	 23.299 	 -20.2007 	 -121.905 	 
C 	 23.4631 	 -19.9182 	 -124.878 	 
H 	 23.0926 	 -20.0698 	 -125.899 	 
H 	 24.0435 	 -20.8846 	 -124.886 	 
C 	 24.2125 	 -18.5778 	 -124.673 	 
H 	 23.6561 	 -17.7258 	 -124.853 	 
H 	 24.3478 	 -18.3862 	 -123.607 	 
C 	 25.6628 	 -18.4909 	 -125.223 	 
H 	 26.4585 	 -19.1219 	 -124.738 	 
H 	 25.7265 	 -18.7944 	 -126.249 	 
H 	 26.0474 	 -17.4633 	 -125.2 	 
S 	 21.7716 	 -21.481 	 -119.65 	 
C 	 21.6229 	 -20.9341 	 -117.98 	 
C 	 21.234 	 -19.5954 	 -118.028 	 
C 	 20.9176 	 -19.1397 	 -119.409 	 
C 	 21.2205 	 -20.0741 	 -120.382 	 
H 	 21.2 	 -19.0243 	 -117.076 	 
C 	 20.2104 	 -17.7709 	 -119.565 	 
H 	 19.8314 	 -17.4119 	 -118.624 	 
H 	 19.377 	 -17.8866 	 -120.172 	 
C 	 21.1271 	 -16.6701 	 -120.224 	 
H 	 20.5758 	 -15.7926 	 -120.481 	 
H 	 21.3958 	 -17.1393 	 -121.206 	 
C 	 22.4122 	 -16.2519 	 -119.347 	 
H 	 22.9501 	 -15.4432 	 -119.833 	 
H 	 23.0847 	 -17.0539 	 -119.164 	 
H 	 22.2198 	 -15.8606 	 -118.377 	 
H 	 20.6053 	 -19.656 	 -125.249 	 
H 	 21.8187 	 -21.5101 	 -117.105 	 
