34

S 	 -65.4078 	 20.8286 	 -71.792 	 
C 	 -64.0754 	 20.4645 	 -72.9412 	 
C 	 -64.4732 	 19.4653 	 -73.8198 	 
C 	 -65.8235 	 19.1015 	 -73.6921 	 
C 	 -66.4641 	 19.7347 	 -72.6527 	 
H 	 -66.429 	 18.55 	 -74.3964 	 
C 	 -63.6261 	 18.921 	 -74.9837 	 
H 	 -62.5712 	 18.878 	 -74.6209 	 
H 	 -63.7483 	 19.7437 	 -75.7537 	 
C 	 -64.069 	 17.5345 	 -75.518 	 
H 	 -63.9515 	 16.7621 	 -74.7572 	 
H 	 -65.1724 	 17.5186 	 -75.7834 	 
C 	 -63.2275 	 17.0796 	 -76.6445 	 
H 	 -63.4522 	 16.0115 	 -76.8994 	 
H 	 -63.4164 	 17.7 	 -77.5014 	 
H 	 -62.2541 	 17.2421 	 -76.2995 	 
S 	 -68.3242 	 18.0477 	 -71.549 	 
C 	 -70.052 	 18.4421 	 -71.5206 	 
C 	 -70.2416 	 19.6872 	 -72.0798 	 
C 	 -69.048 	 20.238 	 -72.6638 	 
C 	 -67.8909 	 19.5308 	 -72.3342 	 
H 	 -71.2035 	 20.1222 	 -72.1922 	 
C 	 -69.187 	 21.4043 	 -73.5263 	 
H 	 -68.2379 	 21.9875 	 -73.526 	 
H 	 -69.9788 	 22.0125 	 -73.0795 	 
C 	 -69.6571 	 21.1004 	 -74.9899 	 
H 	 -69.7087 	 22.0844 	 -75.4913 	 
H 	 -70.6545 	 20.5823 	 -75.0099 	 
C 	 -68.6341 	 20.2419 	 -75.7795 	 
H 	 -67.6555 	 20.8091 	 -75.7778 	 
H 	 -68.9542 	 20.157 	 -76.8562 	 
H 	 -68.4724 	 19.2863 	 -75.2087 	 
H 	 -63.0816 	 20.9402 	 -72.8186 	 
H 	 -70.7417 	 17.782 	 -71.0068 	 
