34

S 	 31.7264 	 -31.3615 	 -107.8 	 
C 	 32.6745 	 -31.8051 	 -106.402 	 
C 	 34.0355 	 -31.8731 	 -106.686 	 
C 	 34.1823 	 -31.6548 	 -108.11 	 
C 	 33.0415 	 -31.475 	 -108.891 	 
H 	 35.1722 	 -31.8462 	 -108.534 	 
C 	 35.043 	 -31.9729 	 -105.616 	 
H 	 35.8117 	 -32.6224 	 -105.981 	 
H 	 34.5885 	 -32.5231 	 -104.767 	 
C 	 35.5611 	 -30.6695 	 -105.039 	 
H 	 34.824 	 -30.0354 	 -104.407 	 
H 	 36.4199 	 -30.7224 	 -104.396 	 
C 	 36.1246 	 -29.7465 	 -106.187 	 
H 	 35.3883 	 -29.3374 	 -106.84 	 
H 	 36.5908 	 -28.8545 	 -105.706 	 
H 	 36.9838 	 -30.2081 	 -106.75 	 
S 	 32.8539 	 -29.6699 	 -110.822 	 
C 	 32.5518 	 -30.021 	 -112.479 	 
C 	 32.5167 	 -31.4195 	 -112.591 	 
C 	 32.8485 	 -32.1476 	 -111.419 	 
C 	 32.9381 	 -31.3039 	 -110.335 	 
H 	 32.2144 	 -31.9652 	 -113.508 	 
C 	 32.9658 	 -33.6946 	 -111.36 	 
H 	 31.9495 	 -34.0995 	 -111.272 	 
H 	 33.3856 	 -33.9386 	 -110.39 	 
C 	 33.727 	 -34.4094 	 -112.488 	 
H 	 34.7744 	 -34.3432 	 -112.333 	 
H 	 33.6293 	 -33.831 	 -113.402 	 
C 	 33.2151 	 -35.8156 	 -112.83 	 
H 	 33.2989 	 -36.3086 	 -111.868 	 
H 	 33.6957 	 -36.329 	 -113.674 	 
H 	 32.189 	 -35.8217 	 -113.058 	 
H 	 32.3134 	 -31.9505 	 -105.407 	 
H 	 32.32 	 -29.3402 	 -113.193 	 
