34

S 	 -104.809 	 -2.9498 	 -108.315 	 
C 	 -105.831 	 -3.23164 	 -106.948 	 
C 	 -105.711 	 -2.1418 	 -106.061 	 
C 	 -104.807 	 -1.1365 	 -106.459 	 
C 	 -104.126 	 -1.47469 	 -107.593 	 
H 	 -104.594 	 -0.179773 	 -105.946 	 
C 	 -106.423 	 -2.00597 	 -104.743 	 
H 	 -105.626 	 -2.09998 	 -104.034 	 
H 	 -107.098 	 -2.83257 	 -104.608 	 
C 	 -107.22 	 -0.717438 	 -104.418 	 
H 	 -106.546 	 0.136344 	 -104.203 	 
H 	 -107.887 	 -0.636541 	 -105.262 	 
C 	 -108.105 	 -0.866195 	 -103.185 	 
H 	 -107.649 	 -1.1676 	 -102.24 	 
H 	 -108.597 	 0.0623734 	 -102.947 	 
H 	 -108.861 	 -1.59385 	 -103.439 	 
S 	 -103.086 	 -0.606355 	 -109.904 	 
C 	 -101.526 	 0.200491 	 -109.945 	 
C 	 -101.124 	 0.500615 	 -108.659 	 
C 	 -101.919 	 -0.100048 	 -107.613 	 
C 	 -103.08 	 -0.711621 	 -108.157 	 
H 	 -100.232 	 1.01606 	 -108.478 	 
C 	 -101.602 	 0.0779276 	 -106.197 	 
H 	 -100.641 	 -0.378995 	 -106.048 	 
H 	 -102.109 	 -0.753294 	 -105.717 	 
C 	 -101.706 	 1.42671 	 -105.578 	 
H 	 -102.7 	 1.64352 	 -105.601 	 
H 	 -101.219 	 2.17455 	 -106.151 	 
C 	 -101.224 	 1.48507 	 -104.069 	 
H 	 -100.181 	 1.44343 	 -103.95 	 
H 	 -101.795 	 0.670904 	 -103.582 	 
H 	 -101.534 	 2.44162 	 -103.597 	 
H 	 -106.5 	 -4.0351 	 -106.846 	 
H 	 -101.044 	 0.425517 	 -110.856 	 
