34

S 	 -28.1436 	 14.3934 	 4.77902 	 
C 	 -29.6993 	 13.6824 	 4.40801 	 
C 	 -30.6517 	 14.0646 	 5.36634 	 
C 	 -30.0548 	 14.4808 	 6.5952 	 
C 	 -28.6686 	 14.7418 	 6.45094 	 
H 	 -30.5372 	 14.784 	 7.50162 	 
C 	 -32.183 	 13.8216 	 5.3253 	 
H 	 -32.6154 	 13.8399 	 6.37447 	 
H 	 -32.3809 	 12.8051 	 4.93966 	 
C 	 -32.9014 	 14.8572 	 4.39805 	 
H 	 -32.9495 	 15.8335 	 4.87644 	 
H 	 -32.4536 	 14.9917 	 3.42133 	 
C 	 -34.3517 	 14.4962 	 4.03732 	 
H 	 -34.5025 	 13.45 	 3.75659 	 
H 	 -35.1203 	 14.7784 	 4.76888 	 
H 	 -34.6892 	 15.0781 	 3.04617 	 
S 	 -27.2621 	 17.1244 	 6.85228 	 
C 	 -26.7 	 17.6029 	 8.45007 	 
C 	 -26.8719 	 16.5014 	 9.2951 	 
C 	 -27.4966 	 15.3383 	 8.70123 	 
C 	 -27.8736 	 15.5678 	 7.38187 	 
H 	 -26.4058 	 16.5119 	 10.2703 	 
C 	 -27.7436 	 14.1202 	 9.51283 	 
H 	 -28.8329 	 13.906 	 9.60097 	 
H 	 -27.3855 	 14.4906 	 10.4658 	 
C 	 -27.1162 	 12.7959 	 8.98346 	 
H 	 -25.9986 	 12.8985 	 8.95298 	 
H 	 -27.4361 	 12.5883 	 7.935 	 
C 	 -27.4544 	 11.7249 	 10.0006 	 
H 	 -26.7409 	 10.9187 	 9.7989 	 
H 	 -28.4755 	 11.4351 	 9.83784 	 
H 	 -27.1924 	 12.171 	 10.9915 	 
H 	 -29.9302 	 13.4331 	 3.41201 	 
H 	 -26.0914 	 18.4665 	 8.57403 	 
