34

S 	 -112.394 	 15.398 	 -7.01683 	 
C 	 -111.602 	 14.1455 	 -6.10803 	 
C 	 -112.015 	 12.8874 	 -6.52604 	 
C 	 -112.921 	 12.9501 	 -7.62137 	 
C 	 -113.241 	 14.2107 	 -8.02347 	 
H 	 -113.357 	 12.1189 	 -8.19298 	 
C 	 -111.503 	 11.6083 	 -5.91249 	 
H 	 -110.534 	 11.9167 	 -5.60269 	 
H 	 -111.518 	 10.8941 	 -6.73252 	 
C 	 -112.273 	 10.9851 	 -4.80845 	 
H 	 -113.193 	 10.5427 	 -5.17197 	 
H 	 -111.706 	 10.2386 	 -4.30965 	 
C 	 -112.51 	 11.982 	 -3.66237 	 
H 	 -111.633 	 12.4907 	 -3.29596 	 
H 	 -113.353 	 12.5505 	 -3.93412 	 
H 	 -112.886 	 11.432 	 -2.79062 	 
S 	 -113.402 	 15.2335 	 -10.5342 	 
C 	 -114.956 	 15.2826 	 -11.3387 	 
C 	 -116.004 	 14.9035 	 -10.4995 	 
C 	 -115.536 	 14.4521 	 -9.25969 	 
C 	 -114.128 	 14.6253 	 -9.09484 	 
H 	 -117.006 	 14.9223 	 -10.8676 	 
C 	 -116.503 	 13.9556 	 -8.19264 	 
H 	 -115.98 	 13.2262 	 -7.52601 	 
H 	 -117.142 	 13.3426 	 -8.69475 	 
C 	 -117.369 	 15.0902 	 -7.52422 	 
H 	 -118.275 	 14.6273 	 -7.09699 	 
H 	 -117.873 	 15.8855 	 -8.10414 	 
C 	 -116.631 	 15.8034 	 -6.38469 	 
H 	 -117.198 	 16.5075 	 -5.73885 	 
H 	 -115.849 	 16.4603 	 -6.81406 	 
H 	 -116.106 	 15.036 	 -5.74963 	 
H 	 -110.897 	 14.1371 	 -5.32416 	 
H 	 -115.136 	 15.6773 	 -12.3164 	 
