34

S 	 -59.1095 	 -54.9509 	 -85.5408 	 
C 	 -59.9426 	 -53.6564 	 -84.7341 	 
C 	 -60.9497 	 -54.0637 	 -83.8889 	 
C 	 -61.1606 	 -55.5071 	 -84.0549 	 
C 	 -60.2257 	 -56.1635 	 -84.8715 	 
H 	 -61.8665 	 -56.0452 	 -83.4936 	 
C 	 -61.8172 	 -53.1719 	 -83.0258 	 
H 	 -61.1353 	 -52.6223 	 -82.413 	 
H 	 -62.4002 	 -53.8588 	 -82.4065 	 
C 	 -62.7184 	 -52.1593 	 -83.7551 	 
H 	 -62.191 	 -51.432 	 -84.4293 	 
H 	 -63.5421 	 -52.5818 	 -84.3118 	 
C 	 -63.41 	 -51.238 	 -82.7538 	 
H 	 -64.3158 	 -50.653 	 -83.1839 	 
H 	 -63.8222 	 -51.7768 	 -81.9542 	 
H 	 -62.7641 	 -50.4818 	 -82.3715 	 
S 	 -58.7572 	 -58.468 	 -84.3536 	 
C 	 -59.3996 	 -60.0256 	 -84.9527 	 
C 	 -60.6917 	 -59.8436 	 -85.5189 	 
C 	 -61.0528 	 -58.4397 	 -85.621 	 
C 	 -60.1041 	 -57.5775 	 -85.1578 	 
H 	 -61.3007 	 -60.6537 	 -86.0337 	 
C 	 -62.3387 	 -58.0825 	 -86.2205 	 
H 	 -62.7126 	 -57.2323 	 -85.6507 	 
H 	 -62.9635 	 -58.9682 	 -86.1241 	 
C 	 -62.347 	 -57.7146 	 -87.6522 	 
H 	 -62.0722 	 -58.5226 	 -88.2679 	 
H 	 -61.4703 	 -56.9178 	 -87.8408 	 
C 	 -63.7137 	 -57.3062 	 -88.087 	 
H 	 -64.2601 	 -58.2759 	 -87.9692 	 
H 	 -63.5719 	 -57.0218 	 -89.1532 	 
H 	 -64.1281 	 -56.3688 	 -87.6435 	 
H 	 -59.8102 	 -52.5935 	 -84.7875 	 
H 	 -58.9165 	 -60.9271 	 -84.8314 	 
