34

S 	 37.2594 	 -1.40323 	 -120.894 	 
C 	 37.6642 	 -2.85253 	 -121.715 	 
C 	 37.7365 	 -3.91319 	 -120.788 	 
C 	 37.4447 	 -3.46901 	 -119.444 	 
C 	 37.2079 	 -2.15694 	 -119.302 	 
H 	 37.3991 	 -4.13188 	 -118.626 	 
C 	 37.9377 	 -5.43417 	 -121.196 	 
H 	 38.6249 	 -5.98794 	 -120.558 	 
H 	 38.3754 	 -5.40171 	 -122.123 	 
C 	 36.633 	 -6.2991 	 -121.233 	 
H 	 36.3709 	 -6.5849 	 -120.251 	 
H 	 35.8387 	 -5.64925 	 -121.583 	 
C 	 36.7629 	 -7.57665 	 -122.042 	 
H 	 36.8057 	 -7.30468 	 -123.097 	 
H 	 37.6366 	 -8.14854 	 -121.694 	 
H 	 35.8856 	 -8.20986 	 -121.848 	 
S 	 37.0971 	 0.319869 	 -118.348 	 
C 	 36.6122 	 0.633219 	 -116.735 	 
C 	 36.6336 	 -0.50588 	 -115.968 	 
C 	 36.8099 	 -1.72062 	 -116.765 	 
C 	 37.0447 	 -1.41306 	 -118.099 	 
H 	 36.4862 	 -0.489954 	 -114.891 	 
C 	 36.5526 	 -3.09162 	 -116.208 	 
H 	 36.5283 	 -2.79924 	 -115.145 	 
H 	 37.3831 	 -3.73227 	 -116.54 	 
C 	 35.2713 	 -3.66989 	 -116.672 	 
H 	 35.2411 	 -3.91973 	 -117.733 	 
H 	 34.4291 	 -2.98029 	 -116.476 	 
C 	 35.0775 	 -5.00981 	 -115.963 	 
H 	 34.9897 	 -4.88234 	 -114.898 	 
H 	 35.8608 	 -5.67462 	 -116.314 	 
H 	 34.1712 	 -5.4831 	 -116.269 	 
H 	 37.7218 	 -2.99243 	 -122.754 	 
H 	 36.6188 	 1.57512 	 -116.237 	 
