34

S 	 -127.08 	 64.5454 	 -50.3182 	 
C 	 -126.72 	 66.243 	 -49.7701 	 
C 	 -127.648 	 67.1781 	 -50.2071 	 
C 	 -128.661 	 66.5077 	 -50.9807 	 
C 	 -128.451 	 65.1768 	 -51.1709 	 
H 	 -129.586 	 66.9926 	 -51.2613 	 
C 	 -127.596 	 68.6826 	 -50.0026 	 
H 	 -127.559 	 68.9746 	 -48.989 	 
H 	 -128.568 	 69.0819 	 -50.3601 	 
C 	 -126.514 	 69.3311 	 -50.7863 	 
H 	 -125.459 	 68.9302 	 -50.5629 	 
H 	 -126.694 	 69.1102 	 -51.8064 	 
C 	 -126.535 	 70.8917 	 -50.4879 	 
H 	 -127.495 	 71.2257 	 -50.9096 	 
H 	 -126.501 	 71.287 	 -49.4384 	 
H 	 -125.718 	 71.4063 	 -50.9688 	 
S 	 -128.686 	 63.1565 	 -53.0619 	 
C 	 -130.2 	 62.2941 	 -53.1535 	 
C 	 -131.145 	 62.8972 	 -52.3575 	 
C 	 -130.658 	 64.0569 	 -51.7316 	 
C 	 -129.308 	 64.1961 	 -51.8511 	 
H 	 -132.177 	 62.4882 	 -52.3638 	 
C 	 -131.515 	 64.9585 	 -50.9086 	 
H 	 -131.107 	 65.2233 	 -50.0161 	 
H 	 -132.375 	 64.3568 	 -50.6228 	 
C 	 -132.205 	 66.048 	 -51.7538 	 
H 	 -132.807 	 65.6047 	 -52.5082 	 
H 	 -131.474 	 66.689 	 -52.1606 	 
C 	 -133.139 	 67.0196 	 -51.0459 	 
H 	 -132.658 	 67.5119 	 -50.1884 	 
H 	 -133.99 	 66.4469 	 -50.6285 	 
H 	 -133.603 	 67.9194 	 -51.4931 	 
H 	 -125.846 	 66.4401 	 -49.1619 	 
H 	 -130.404 	 61.3719 	 -53.6693 	 
