34

S 	 -119.986 	 65.2734 	 -62.7876 	 
C 	 -119.729 	 64.2225 	 -64.1877 	 
C 	 -120.215 	 62.9744 	 -63.8809 	 
C 	 -120.691 	 62.8301 	 -62.5401 	 
C 	 -120.52 	 63.9531 	 -61.7929 	 
H 	 -121.054 	 61.9356 	 -62.2042 	 
C 	 -120.436 	 61.8531 	 -64.8801 	 
H 	 -120.019 	 60.9528 	 -64.5496 	 
H 	 -119.951 	 62.2033 	 -65.7676 	 
C 	 -121.935 	 61.6919 	 -65.1786 	 
H 	 -122.365 	 61.1907 	 -64.2736 	 
H 	 -122.469 	 62.5908 	 -65.5045 	 
C 	 -122.164 	 60.7364 	 -66.3279 	 
H 	 -121.967 	 59.6979 	 -66.0697 	 
H 	 -123.174 	 60.6673 	 -66.7037 	 
H 	 -121.413 	 60.9672 	 -67.1177 	 
S 	 -121.975 	 65.2038 	 -59.7032 	 
C 	 -121.541 	 64.9449 	 -58.1129 	 
C 	 -120.333 	 64.2683 	 -58.0135 	 
C 	 -119.863 	 63.7689 	 -59.2619 	 
C 	 -120.625 	 64.2102 	 -60.3565 	 
H 	 -119.911 	 64.118 	 -57.0115 	 
C 	 -118.528 	 63.0106 	 -59.3766 	 
H 	 -118.776 	 62.1063 	 -59.8364 	 
H 	 -118.238 	 62.7083 	 -58.3698 	 
C 	 -117.354 	 63.751 	 -59.9685 	 
H 	 -117.434 	 63.822 	 -61.0677 	 
H 	 -116.458 	 63.1954 	 -59.8623 	 
C 	 -117.05 	 65.1114 	 -59.2285 	 
H 	 -117.9 	 65.8001 	 -59.1879 	 
H 	 -116.316 	 65.6105 	 -59.8292 	 
H 	 -116.68 	 64.9256 	 -58.2942 	 
H 	 -119.288 	 64.6721 	 -65.0999 	 
H 	 -122.132 	 65.281 	 -57.2778 	 
