34

S 	 39.465 	 -29.7486 	 -119.709 	 
C 	 39.793 	 -29.3412 	 -121.409 	 
C 	 41.0826 	 -29.7177 	 -121.738 	 
C 	 41.772 	 -30.3604 	 -120.714 	 
C 	 40.9702 	 -30.5607 	 -119.569 	 
H 	 42.7772 	 -30.7252 	 -120.681 	 
C 	 41.7365 	 -29.5756 	 -123.069 	 
H 	 40.9897 	 -29.2747 	 -123.843 	 
H 	 41.9678 	 -30.5861 	 -123.279 	 
C 	 43.02 	 -28.7713 	 -123.234 	 
H 	 43.6979 	 -29.0913 	 -122.473 	 
H 	 43.3958 	 -28.9248 	 -124.216 	 
C 	 42.7473 	 -27.3139 	 -122.863 	 
H 	 42.5319 	 -27.1634 	 -121.829 	 
H 	 43.6716 	 -26.8017 	 -123.123 	 
H 	 41.9058 	 -26.9053 	 -123.374 	 
S 	 42.7905 	 -30.5358 	 -117.611 	 
C 	 42.7004 	 -31.765 	 -116.397 	 
C 	 42.0762 	 -32.9105 	 -116.9 	 
C 	 41.3358 	 -32.662 	 -118.046 	 
C 	 41.4665 	 -31.3314 	 -118.424 	 
H 	 42.0058 	 -33.7987 	 -116.352 	 
C 	 40.4311 	 -33.6448 	 -118.744 	 
H 	 40.8542 	 -34.2944 	 -119.454 	 
H 	 39.6745 	 -33.0962 	 -119.338 	 
C 	 39.6197 	 -34.5399 	 -117.861 	 
H 	 39.3491 	 -33.9427 	 -117.018 	 
H 	 40.2718 	 -35.4238 	 -117.639 	 
C 	 38.3481 	 -35.0589 	 -118.549 	 
H 	 37.5428 	 -34.2971 	 -118.668 	 
H 	 37.9019 	 -35.8544 	 -117.871 	 
H 	 38.609 	 -35.4325 	 -119.51 	 
H 	 39.1008 	 -28.9794 	 -122.181 	 
H 	 43.1823 	 -31.729 	 -115.437 	 
