34

S 	 -62.2657 	 11.0889 	 -18.2694 	 
C 	 -63.8585 	 10.3293 	 -18.0042 	 
C 	 -63.7537 	 8.97519 	 -18.2912 	 
C 	 -62.5043 	 8.66212 	 -18.9163 	 
C 	 -61.5728 	 9.68224 	 -18.9364 	 
H 	 -62.324 	 7.67333 	 -19.2703 	 
C 	 -64.9586 	 8.01525 	 -18.1944 	 
H 	 -64.8078 	 7.40445 	 -19.075 	 
H 	 -65.9426 	 8.59622 	 -18.3422 	 
C 	 -64.923 	 6.97122 	 -17.1034 	 
H 	 -63.9533 	 6.56545 	 -16.9901 	 
H 	 -65.1688 	 7.50469 	 -16.1966 	 
C 	 -65.9166 	 5.83704 	 -17.4348 	 
H 	 -65.7931 	 5.0426 	 -16.7723 	 
H 	 -66.8814 	 6.3341 	 -17.2906 	 
H 	 -65.8546 	 5.45386 	 -18.442 	 
S 	 -59.9567 	 8.80169 	 -21.0783 	 
C 	 -58.2632 	 9.34662 	 -21.0031 	 
C 	 -57.9142 	 9.84348 	 -19.7717 	 
C 	 -59.0174 	 10.0658 	 -18.9045 	 
C 	 -60.231 	 9.58703 	 -19.4694 	 
H 	 -56.8945 	 10.044 	 -19.5501 	 
C 	 -58.8593 	 10.7026 	 -17.5051 	 
H 	 -59.8084 	 10.8348 	 -17.0865 	 
H 	 -58.5431 	 11.7447 	 -17.6123 	 
C 	 -57.8086 	 9.9168 	 -16.6011 	 
H 	 -57.8313 	 10.3712 	 -15.5826 	 
H 	 -56.7938 	 10.1365 	 -16.8917 	 
C 	 -58.1584 	 8.45136 	 -16.5209 	 
H 	 -57.3997 	 7.97199 	 -15.9042 	 
H 	 -58.3384 	 7.83615 	 -17.4164 	 
H 	 -59.0129 	 8.43701 	 -15.9154 	 
H 	 -64.6983 	 10.7674 	 -17.5367 	 
H 	 -57.5249 	 9.03154 	 -21.7076 	 
