34

S 	 -119.761 	 28.3021 	 -22.4685 	 
C 	 -119.883 	 27.6688 	 -24.027 	 
C 	 -121.068 	 28.026 	 -24.6313 	 
C 	 -121.933 	 28.6755 	 -23.7418 	 
C 	 -121.421 	 28.7707 	 -22.4491 	 
H 	 -122.882 	 29.1804 	 -23.8737 	 
C 	 -121.549 	 27.8615 	 -26.0517 	 
H 	 -122.574 	 27.4027 	 -26.0881 	 
H 	 -120.926 	 27.141 	 -26.5557 	 
C 	 -121.508 	 29.2253 	 -26.7899 	 
H 	 -121.866 	 29.0351 	 -27.7899 	 
H 	 -122.227 	 29.8408 	 -26.3261 	 
C 	 -120.162 	 29.9693 	 -26.7937 	 
H 	 -120.147 	 30.8987 	 -27.3642 	 
H 	 -119.753 	 30.1959 	 -25.8598 	 
H 	 -119.398 	 29.3939 	 -27.265 	 
S 	 -121.228 	 31.3472 	 -21.2507 	 
C 	 -122.49 	 31.7852 	 -20.1465 	 
C 	 -123.323 	 30.7236 	 -19.8516 	 
C 	 -123.027 	 29.5107 	 -20.5663 	 
C 	 -121.864 	 29.6552 	 -21.386 	 
H 	 -124.157 	 31.0539 	 -19.2695 	 
C 	 -123.99 	 28.3225 	 -20.5806 	 
H 	 -124.143 	 27.8711 	 -21.578 	 
H 	 -125.041 	 28.6733 	 -20.2625 	 
C 	 -123.63 	 27.1936 	 -19.5908 	 
H 	 -124.504 	 26.6918 	 -19.1809 	 
H 	 -123.286 	 27.5642 	 -18.6264 	 
C 	 -122.628 	 26.1863 	 -20.089 	 
H 	 -121.868 	 26.1595 	 -19.2426 	 
H 	 -122.152 	 26.5473 	 -20.9729 	 
H 	 -123.004 	 25.2526 	 -20.3839 	 
H 	 -119.15 	 27.1425 	 -24.621 	 
H 	 -122.598 	 32.81 	 -19.7805 	 
