34

S 	 -64.9768 	 11.5097 	 -77.526 	 
C 	 -63.5504 	 10.4644 	 -77.1431 	 
C 	 -63.6956 	 9.1096 	 -77.5336 	 
C 	 -64.9792 	 8.95611 	 -78.1624 	 
C 	 -65.769 	 10.0851 	 -78.2818 	 
H 	 -65.4353 	 8.11998 	 -78.593 	 
C 	 -62.9228 	 7.87848 	 -77.1812 	 
H 	 -63.6047 	 7.23271 	 -76.698 	 
H 	 -62.1809 	 8.17311 	 -76.4095 	 
C 	 -62.2534 	 7.10334 	 -78.3249 	 
H 	 -61.7367 	 6.27779 	 -77.9813 	 
H 	 -62.9667 	 6.73172 	 -79.0292 	 
C 	 -61.0675 	 7.89971 	 -78.9241 	 
H 	 -61.498 	 8.76483 	 -79.3559 	 
H 	 -60.3036 	 8.1387 	 -78.1274 	 
H 	 -60.4685 	 7.30594 	 -79.6023 	 
S 	 -68.2155 	 11.0435 	 -77.7942 	 
C 	 -69.3887 	 10.9388 	 -79.0259 	 
C 	 -69.0075 	 10.1573 	 -80.107 	 
C 	 -67.6607 	 9.71707 	 -79.9374 	 
C 	 -67.0978 	 10.1342 	 -78.7682 	 
H 	 -69.6448 	 9.9409 	 -80.9366 	 
C 	 -66.9829 	 8.94059 	 -81.0582 	 
H 	 -65.9728 	 9.12117 	 -81.0255 	 
H 	 -67.3268 	 9.40352 	 -81.9461 	 
C 	 -67.3789 	 7.50721 	 -81.0886 	 
H 	 -68.3903 	 7.46686 	 -81.3285 	 
H 	 -67.2321 	 7.00056 	 -80.1375 	 
C 	 -66.4597 	 6.76168 	 -82.0005 	 
H 	 -65.5176 	 6.55726 	 -81.4823 	 
H 	 -66.2345 	 7.37305 	 -82.9038 	 
H 	 -66.9317 	 5.86933 	 -82.4763 	 
H 	 -62.6567 	 10.8057 	 -76.5988 	 
H 	 -70.3882 	 11.2941 	 -78.8226 	 
