34

S 	 -112.69 	 17.3641 	 -116.7 	 
C 	 -113.516 	 18.2041 	 -115.41 	 
C 	 -113.493 	 19.5706 	 -115.586 	 
C 	 -112.813 	 19.9377 	 -116.808 	 
C 	 -112.193 	 18.8517 	 -117.452 	 
H 	 -112.681 	 20.8654 	 -117.259 	 
C 	 -114.066 	 20.657 	 -114.673 	 
H 	 -114.123 	 20.0698 	 -113.736 	 
H 	 -115.079 	 20.9426 	 -114.915 	 
C 	 -113.408 	 22.0451 	 -114.386 	 
H 	 -113.455 	 22.5672 	 -115.329 	 
H 	 -113.853 	 22.7153 	 -113.603 	 
C 	 -111.906 	 21.76 	 -114.115 	 
H 	 -111.355 	 22.6353 	 -113.883 	 
H 	 -111.651 	 21.0117 	 -113.414 	 
H 	 -111.362 	 21.467 	 -115.014 	 
S 	 -112.456 	 18.3598 	 -120.231 	 
C 	 -111.15 	 18.9215 	 -121.265 	 
C 	 -110.134 	 19.5232 	 -120.519 	 
C 	 -110.354 	 19.4968 	 -119.105 	 
C 	 -111.569 	 18.9378 	 -118.765 	 
H 	 -109.177 	 19.7824 	 -121.026 	 
C 	 -109.36 	 20.0881 	 -118.116 	 
H 	 -109.95 	 20.4634 	 -117.256 	 
H 	 -109.032 	 20.9516 	 -118.649 	 
C 	 -108.295 	 19.1075 	 -117.677 	 
H 	 -107.73 	 18.8724 	 -118.61 	 
H 	 -108.673 	 18.1551 	 -117.232 	 
C 	 -107.283 	 19.9048 	 -116.705 	 
H 	 -107.672 	 20.2007 	 -115.747 	 
H 	 -106.94 	 20.8188 	 -117.296 	 
H 	 -106.366 	 19.3237 	 -116.475 	 
H 	 -114.003 	 17.6372 	 -114.603 	 
H 	 -111.002 	 18.747 	 -122.294 	 
