34

S 	 -52.136 	 23.4253 	 -92.3553 	 
C 	 -50.5074 	 24.1651 	 -92.188 	 
C 	 -49.4947 	 23.4367 	 -92.8629 	 
C 	 -50.044 	 22.2997 	 -93.4777 	 
C 	 -51.4239 	 22.1861 	 -93.4264 	 
H 	 -49.5545 	 21.5327 	 -94.0803 	 
C 	 -48.0234 	 23.7986 	 -92.9211 	 
H 	 -47.9644 	 24.9448 	 -92.9064 	 
H 	 -47.6568 	 23.5817 	 -93.9765 	 
C 	 -46.919 	 23.1408 	 -92.0686 	 
H 	 -47.1011 	 22.0573 	 -92.1323 	 
H 	 -45.9324 	 23.317 	 -92.4595 	 
C 	 -46.9812 	 23.6841 	 -90.6162 	 
H 	 -47.9698 	 23.5527 	 -90.1375 	 
H 	 -46.1704 	 23.2915 	 -90.0103 	 
H 	 -46.8889 	 24.7981 	 -90.6737 	 
S 	 -53.3009 	 21.8412 	 -95.2708 	 
C 	 -53.8013 	 20.2288 	 -95.7947 	 
C 	 -53.1402 	 19.2172 	 -95.1229 	 
C 	 -52.2132 	 19.8034 	 -94.2402 	 
C 	 -52.2581 	 21.2198 	 -94.1359 	 
H 	 -53.3855 	 18.2011 	 -95.233 	 
C 	 -51.2768 	 18.9331 	 -93.3714 	 
H 	 -51.6271 	 19.0738 	 -92.3619 	 
H 	 -50.2469 	 19.2468 	 -93.3699 	 
C 	 -51.347 	 17.3739 	 -93.5504 	 
H 	 -52.3606 	 17.1001 	 -93.6865 	 
H 	 -50.9709 	 16.7852 	 -92.7526 	 
C 	 -50.548 	 16.9393 	 -94.8342 	 
H 	 -50.9338 	 17.3853 	 -95.8018 	 
H 	 -50.6746 	 15.8974 	 -94.85 	 
H 	 -49.4478 	 17.0506 	 -94.7434 	 
H 	 -50.2738 	 25.1064 	 -91.6574 	 
H 	 -54.5905 	 19.9643 	 -96.5238 	 
