34

S 	 -39.7658 	 -0.606462 	 -4.18198 	 
C 	 -39.1687 	 0.147066 	 -2.67524 	 
C 	 -39.362 	 1.55442 	 -2.75321 	 
C 	 -39.871 	 1.99514 	 -4.0104 	 
C 	 -40.1091 	 0.957491 	 -4.89715 	 
H 	 -40.1421 	 3.03269 	 -4.27533 	 
C 	 -38.9881 	 2.50414 	 -1.66328 	 
H 	 -38.5689 	 1.99052 	 -0.798292 	 
H 	 -39.8357 	 2.97341 	 -1.24474 	 
C 	 -37.9665 	 3.58148 	 -2.05745 	 
H 	 -37.1668 	 3.27437 	 -2.65457 	 
H 	 -38.4848 	 4.38181 	 -2.59141 	 
C 	 -37.1954 	 4.17261 	 -0.862611 	 
H 	 -37.8742 	 4.68341 	 -0.259523 	 
H 	 -36.7287 	 3.32701 	 -0.359677 	 
H 	 -36.3319 	 4.68863 	 -1.21808 	 
S 	 -39.8833 	 1.61006 	 -7.55226 	 
C 	 -41.1919 	 1.562 	 -8.67568 	 
C 	 -42.3653 	 1.25726 	 -7.97019 	 
C 	 -42.1273 	 1.052 	 -6.53332 	 
C 	 -40.8081 	 1.12644 	 -6.16721 	 
H 	 -43.3281 	 1.37966 	 -8.4606 	 
C 	 -43.2203 	 0.789216 	 -5.54293 	 
H 	 -42.9936 	 0.171861 	 -4.70515 	 
H 	 -43.8501 	 0.140145 	 -6.15841 	 
C 	 -43.9595 	 2.07303 	 -5.14764 	 
H 	 -44.1378 	 2.72926 	 -6.06169 	 
H 	 -43.4511 	 2.65118 	 -4.33501 	 
C 	 -45.3146 	 1.76957 	 -4.57885 	 
H 	 -45.9295 	 2.76197 	 -4.44022 	 
H 	 -45.2809 	 1.19727 	 -3.66006 	 
H 	 -45.9146 	 1.16431 	 -5.28976 	 
H 	 -38.8364 	 -0.316612 	 -1.7636 	 
H 	 -41.3056 	 1.86711 	 -9.69865 	 
