34

S 	 -38.6925 	 -47.5897 	 -73.1681 	 
C 	 -39.4831 	 -46.1062 	 -73.3295 	 
C 	 -39.2131 	 -45.2171 	 -72.29 	 
C 	 -38.0728 	 -45.6809 	 -71.5507 	 
C 	 -37.5904 	 -46.9242 	 -72.0054 	 
H 	 -37.5282 	 -45.1762 	 -70.7546 	 
C 	 -39.9657 	 -43.9571 	 -72.0616 	 
H 	 -40.0074 	 -43.4845 	 -72.9045 	 
H 	 -39.4462 	 -43.3096 	 -71.3364 	 
C 	 -41.346 	 -44.0747 	 -71.3741 	 
H 	 -41.1771 	 -44.6016 	 -70.367 	 
H 	 -41.7988 	 -43.1115 	 -71.1365 	 
C 	 -42.3291 	 -44.7486 	 -72.312 	 
H 	 -42.2134 	 -44.3573 	 -73.3123 	 
H 	 -42.1905 	 -45.7866 	 -72.46 	 
H 	 -43.3714 	 -44.5195 	 -71.946 	 
S 	 -36.1968 	 -48.326 	 -70.0597 	 
C 	 -34.6307 	 -48.9472 	 -70.4883 	 
C 	 -34.1289 	 -48.4493 	 -71.6326 	 
C 	 -35.1107 	 -47.6331 	 -72.2246 	 
C 	 -36.3839 	 -47.5933 	 -71.6033 	 
H 	 -33.1307 	 -48.6857 	 -71.8869 	 
C 	 -34.8193 	 -46.9294 	 -73.5248 	 
H 	 -33.9035 	 -46.3023 	 -73.3793 	 
H 	 -35.548 	 -46.131 	 -73.8115 	 
C 	 -34.5884 	 -47.7609 	 -74.7549 	 
H 	 -33.5174 	 -48.2722 	 -74.7953 	 
H 	 -34.473 	 -46.9874 	 -75.5356 	 
C 	 -35.7146 	 -48.7328 	 -75.1757 	 
H 	 -35.6013 	 -49.584 	 -74.5256 	 
H 	 -35.5604 	 -49.1806 	 -76.1814 	 
H 	 -36.7264 	 -48.3009 	 -75.0622 	 
H 	 -40.2969 	 -45.9268 	 -74.0121 	 
H 	 -34.0177 	 -49.6017 	 -69.8411 	 
