34

S 	 38.1708 	 -26.5914 	 -113.046 	 
C 	 39.1804 	 -26.4084 	 -111.723 	 
C 	 39.3894 	 -25.0698 	 -111.338 	 
C 	 38.7467 	 -24.1546 	 -112.233 	 
C 	 37.8909 	 -24.8395 	 -113.165 	 
H 	 38.7534 	 -23.0412 	 -112.195 	 
C 	 40.2347 	 -24.5404 	 -110.226 	 
H 	 41.2907 	 -24.7687 	 -110.43 	 
H 	 39.9989 	 -25.2352 	 -109.403 	 
C 	 39.9095 	 -23.1797 	 -109.661 	 
H 	 40.6455 	 -22.9642 	 -108.897 	 
H 	 39.9659 	 -22.4595 	 -110.371 	 
C 	 38.4121 	 -23.0172 	 -109.194 	 
H 	 37.7305 	 -23.0873 	 -110.05 	 
H 	 38.1209 	 -23.764 	 -108.528 	 
H 	 38.3292 	 -21.978 	 -108.734 	 
S 	 37.1435 	 -25.0341 	 -115.84 	 
C 	 35.9992 	 -23.8258 	 -116.433 	 
C 	 35.5857 	 -22.9572 	 -115.438 	 
C 	 36.1365 	 -23.1686 	 -114.159 	 
C 	 37.0515 	 -24.2522 	 -114.201 	 
H 	 35.0178 	 -22.0721 	 -115.653 	 
C 	 36.026 	 -22.1966 	 -113.034 	 
H 	 36.1099 	 -22.7057 	 -112.028 	 
H 	 34.9556 	 -21.8878 	 -112.953 	 
C 	 36.868 	 -20.8592 	 -113.16 	 
H 	 37.8362 	 -20.9573 	 -113.563 	 
H 	 37.0972 	 -20.5141 	 -112.149 	 
C 	 36.1487 	 -19.6882 	 -113.827 	 
H 	 36.652 	 -18.6933 	 -113.774 	 
H 	 35.2257 	 -19.3432 	 -113.342 	 
H 	 35.8859 	 -20.0501 	 -114.889 	 
H 	 39.7939 	 -27.2762 	 -111.504 	 
H 	 35.7614 	 -23.7666 	 -117.538 	 
