34

S 	 -114.525 	 35.1345 	 -115.782 	 
C 	 -114.319 	 33.5673 	 -116.624 	 
C 	 -113.621 	 32.7544 	 -115.749 	 
C 	 -112.911 	 33.4187 	 -114.718 	 
C 	 -113.363 	 34.6993 	 -114.592 	 
H 	 -112.266 	 32.9782 	 -113.935 	 
C 	 -113.408 	 31.29 	 -115.922 	 
H 	 -112.322 	 31.026 	 -115.931 	 
H 	 -113.753 	 31.0317 	 -116.924 	 
C 	 -114.182 	 30.5108 	 -114.884 	 
H 	 -114.095 	 31.0286 	 -113.966 	 
H 	 -115.245 	 30.4677 	 -115.096 	 
C 	 -113.537 	 29.1033 	 -114.914 	 
H 	 -113.458 	 28.803 	 -115.948 	 
H 	 -112.524 	 29.199 	 -114.559 	 
H 	 -114.182 	 28.4454 	 -114.369 	 
S 	 -111.109 	 35.7462 	 -113.411 	 
C 	 -111.219 	 37.023 	 -112.225 	 
C 	 -112.558 	 37.4213 	 -112.056 	 
C 	 -113.48 	 36.625 	 -112.8 	 
C 	 -112.852 	 35.7202 	 -113.674 	 
H 	 -112.805 	 38.0894 	 -111.194 	 
C 	 -114.913 	 36.7743 	 -112.589 	 
H 	 -115.361 	 36.3167 	 -113.477 	 
H 	 -115.276 	 37.7384 	 -112.506 	 
C 	 -115.469 	 35.9446 	 -111.431 	 
H 	 -115.155 	 36.3592 	 -110.475 	 
H 	 -115.033 	 34.938 	 -111.419 	 
C 	 -117.025 	 35.7155 	 -111.549 	 
H 	 -117.425 	 35.186 	 -110.643 	 
H 	 -117.229 	 35.1662 	 -112.426 	 
H 	 -117.649 	 36.6627 	 -111.487 	 
H 	 -114.776 	 33.2278 	 -117.565 	 
H 	 -110.472 	 37.4283 	 -111.593 	 
