34

S 	 -104.98 	 63.9819 	 -96.976 	 
C 	 -106.514 	 63.8373 	 -97.6838 	 
C 	 -107.157 	 62.7283 	 -97.1812 	 
C 	 -106.283 	 62.0176 	 -96.3496 	 
C 	 -105.085 	 62.5737 	 -95.9992 	 
H 	 -106.579 	 61.0707 	 -95.8814 	 
C 	 -108.686 	 62.4172 	 -97.3842 	 
H 	 -109.164 	 63.3801 	 -97.456 	 
H 	 -108.969 	 61.9078 	 -96.429 	 
C 	 -109.012 	 61.5519 	 -98.5911 	 
H 	 -110.104 	 61.537 	 -98.7021 	 
H 	 -108.698 	 62.2218 	 -99.4145 	 
C 	 -108.473 	 60.16 	 -98.5471 	 
H 	 -107.425 	 60.0687 	 -98.6756 	 
H 	 -108.871 	 59.772 	 -97.5295 	 
H 	 -108.935 	 59.5243 	 -99.2489 	 
S 	 -102.66 	 61.2838 	 -96.056 	 
C 	 -101.88 	 60.9487 	 -94.4964 	 
C 	 -102.742 	 61.2587 	 -93.4219 	 
C 	 -104.009 	 61.8202 	 -93.8315 	 
C 	 -104.034 	 62.0782 	 -95.1895 	 
H 	 -102.446 	 60.9589 	 -92.3941 	 
C 	 -105.102 	 62.314 	 -92.8986 	 
H 	 -105.709 	 63.1438 	 -93.2319 	 
H 	 -104.566 	 62.861 	 -92.0647 	 
C 	 -105.968 	 61.1814 	 -92.4216 	 
H 	 -105.327 	 60.4368 	 -92.0268 	 
H 	 -106.49 	 60.7403 	 -93.1848 	 
C 	 -106.97 	 61.6874 	 -91.4482 	 
H 	 -107.649 	 60.9382 	 -91.101 	 
H 	 -107.579 	 62.3783 	 -91.9387 	 
H 	 -106.485 	 62.2719 	 -90.659 	 
H 	 -107.04 	 64.6754 	 -98.1759 	 
H 	 -100.977 	 60.4187 	 -94.3422 	 
