34

S 	 -52.9206 	 11.0167 	 -102.677 	 
C 	 -54.3035 	 10.2095 	 -103.248 	 
C 	 -55.2815 	 11.0896 	 -103.677 	 
C 	 -54.7775 	 12.4163 	 -103.65 	 
C 	 -53.4309 	 12.5615 	 -103.316 	 
H 	 -55.3392 	 13.2651 	 -103.832 	 
C 	 -56.7458 	 10.8543 	 -104.145 	 
H 	 -56.7933 	 9.89206 	 -104.719 	 
H 	 -57.0303 	 11.6947 	 -104.823 	 
C 	 -57.6952 	 10.9266 	 -103.019 	 
H 	 -57.5718 	 9.9372 	 -102.521 	 
H 	 -57.4404 	 11.7385 	 -102.297 	 
C 	 -59.1338 	 11.0209 	 -103.534 	 
H 	 -59.8392 	 11.4337 	 -102.774 	 
H 	 -59.155 	 11.6878 	 -104.373 	 
H 	 -59.3952 	 10.0308 	 -103.737 	 
S 	 -51.9871 	 13.9665 	 -101.346 	 
C 	 -51.2095 	 15.4599 	 -101.695 	 
C 	 -51.5422 	 15.8875 	 -102.999 	 
C 	 -52.3429 	 14.9275 	 -103.722 	 
C 	 -52.6466 	 13.7807 	 -102.997 	 
H 	 -51.38 	 16.8073 	 -103.344 	 
C 	 -52.8359 	 15.2845 	 -105.129 	 
H 	 -53.4664 	 14.5303 	 -105.458 	 
H 	 -51.987 	 15.4792 	 -105.841 	 
C 	 -53.7136 	 16.5467 	 -105.165 	 
H 	 -54.1563 	 16.6185 	 -106.235 	 
H 	 -53.1378 	 17.3783 	 -105.003 	 
C 	 -54.9062 	 16.5944 	 -104.16 	 
H 	 -55.3851 	 17.5102 	 -104.424 	 
H 	 -54.638 	 16.6754 	 -103.11 	 
H 	 -55.6618 	 15.7923 	 -104.177 	 
H 	 -54.4122 	 9.09753 	 -103.244 	 
H 	 -50.7243 	 16.0589 	 -100.974 	 
