34

S 	 -118.303 	 63.4143 	 -63.4642 	 
C 	 -119.382 	 62.8758 	 -64.7084 	 
C 	 -120.596 	 62.4616 	 -64.203 	 
C 	 -120.756 	 62.8037 	 -62.8531 	 
C 	 -119.576 	 63.1762 	 -62.2472 	 
H 	 -121.583 	 62.6309 	 -62.1151 	 
C 	 -121.688 	 61.6809 	 -65.0037 	 
H 	 -121.09 	 61.019 	 -65.5796 	 
H 	 -122.203 	 62.3402 	 -65.6913 	 
C 	 -122.71 	 60.9698 	 -64.1584 	 
H 	 -122.22 	 60.2842 	 -63.4628 	 
H 	 -123.28 	 61.796 	 -63.7068 	 
C 	 -123.622 	 60.1349 	 -65.08 	 
H 	 -124.33 	 60.7794 	 -65.5957 	 
H 	 -123.046 	 59.5981 	 -65.755 	 
H 	 -124.219 	 59.4138 	 -64.5365 	 
S 	 -120.429 	 64.8522 	 -60.2674 	 
C 	 -119.638 	 64.8269 	 -58.6536 	 
C 	 -118.624 	 63.9059 	 -58.6919 	 
C 	 -118.46 	 63.2131 	 -59.9158 	 
C 	 -119.374 	 63.6224 	 -60.8807 	 
H 	 -118.101 	 63.7501 	 -57.7525 	 
C 	 -117.484 	 62.0727 	 -60.0815 	 
H 	 -117.896 	 61.2047 	 -60.6877 	 
H 	 -117.447 	 61.5334 	 -59.1363 	 
C 	 -116.06 	 62.4287 	 -60.5468 	 
H 	 -115.974 	 63.171 	 -61.3892 	 
H 	 -115.687 	 61.4703 	 -60.9832 	 
C 	 -115.237 	 62.9612 	 -59.4179 	 
H 	 -115.732 	 63.7519 	 -58.8228 	 
H 	 -114.369 	 63.4386 	 -59.8687 	 
H 	 -114.934 	 62.1724 	 -58.7472 	 
H 	 -119.014 	 62.5052 	 -65.6913 	 
H 	 -120.06 	 65.4679 	 -57.8952 	 
