34

S 	 -105.161 	 53.5107 	 -81.0551 	 
C 	 -104.988 	 54.2767 	 -82.6301 	 
C 	 -105.657 	 53.6331 	 -83.5898 	 
C 	 -106.255 	 52.4362 	 -83.0617 	 
C 	 -106.089 	 52.1877 	 -81.7387 	 
H 	 -106.82 	 51.6918 	 -83.6145 	 
C 	 -105.759 	 54.0655 	 -84.9943 	 
H 	 -105.626 	 55.1539 	 -85.0298 	 
H 	 -106.772 	 53.8599 	 -85.3209 	 
C 	 -104.775 	 53.3905 	 -85.9537 	 
H 	 -103.777 	 53.4137 	 -85.5503 	 
H 	 -105.131 	 52.4184 	 -86.1189 	 
C 	 -104.707 	 54.091 	 -87.3505 	 
H 	 -104.019 	 53.6708 	 -88.0823 	 
H 	 -105.72 	 54.1976 	 -87.7461 	 
H 	 -104.377 	 55.113 	 -87.2261 	 
S 	 -108.09 	 51.761 	 -79.9703 	 
C 	 -108.493 	 50.1152 	 -79.4301 	 
C 	 -107.667 	 49.2085 	 -80.0266 	 
C 	 -106.642 	 49.8345 	 -80.8439 	 
C 	 -106.825 	 51.2324 	 -80.9355 	 
H 	 -107.879 	 48.0977 	 -79.9514 	 
C 	 -105.668 	 48.9681 	 -81.678 	 
H 	 -105.572 	 48.0809 	 -81.1213 	 
H 	 -104.724 	 49.4635 	 -81.7745 	 
C 	 -106.142 	 48.6071 	 -83.1195 	 
H 	 -105.256 	 48.2867 	 -83.6385 	 
H 	 -106.509 	 49.5291 	 -83.5016 	 
C 	 -107.239 	 47.5479 	 -83.3137 	 
H 	 -106.948 	 46.7211 	 -84.0029 	 
H 	 -108.129 	 48.0493 	 -83.679 	 
H 	 -107.535 	 47.1867 	 -82.3095 	 
H 	 -104.415 	 55.1152 	 -82.8605 	 
H 	 -109.365 	 49.7194 	 -78.9091 	 
