34

S 	 -84.433 	 -14.366 	 -54.5394 	 
C 	 -86.1438 	 -14.2823 	 -54.604 	 
C 	 -86.717 	 -15.4448 	 -54.1989 	 
C 	 -85.7082 	 -16.4682 	 -53.7767 	 
C 	 -84.4011 	 -15.9929 	 -54.02 	 
H 	 -85.8618 	 -17.4587 	 -53.2865 	 
C 	 -88.1918 	 -15.7006 	 -54.1332 	 
H 	 -88.3776 	 -16.6994 	 -54.4643 	 
H 	 -88.7093 	 -15.0465 	 -54.8803 	 
C 	 -88.7187 	 -15.5649 	 -52.6767 	 
H 	 -88.7285 	 -16.4251 	 -52.0761 	 
H 	 -88.0175 	 -14.9383 	 -52.1492 	 
C 	 -90.0175 	 -14.7386 	 -52.5266 	 
H 	 -90.7351 	 -14.9762 	 -53.3337 	 
H 	 -90.576 	 -14.8313 	 -51.5854 	 
H 	 -89.6827 	 -13.7539 	 -52.6152 	 
S 	 -82.519 	 -16.3693 	 -52.1778 	 
C 	 -81.1755 	 -17.5636 	 -52.3214 	 
C 	 -81.2262 	 -18.0597 	 -53.6371 	 
C 	 -82.4346 	 -17.7008 	 -54.3729 	 
C 	 -83.1772 	 -16.7208 	 -53.7455 	 
H 	 -80.5127 	 -18.7565 	 -54.1018 	 
C 	 -82.8157 	 -18.1741 	 -55.7882 	 
H 	 -81.8716 	 -17.9101 	 -56.3135 	 
H 	 -83.5337 	 -17.4986 	 -56.2929 	 
C 	 -83.2729 	 -19.6484 	 -55.9465 	 
H 	 -84.079 	 -19.8087 	 -55.2682 	 
H 	 -82.4445 	 -20.2174 	 -55.5366 	 
C 	 -83.5834 	 -19.9758 	 -57.4885 	 
H 	 -83.9583 	 -21.0324 	 -57.5831 	 
H 	 -82.7848 	 -19.7976 	 -58.1875 	 
H 	 -84.4353 	 -19.4419 	 -57.7187 	 
H 	 -86.6957 	 -13.3798 	 -54.7786 	 
H 	 -80.3633 	 -17.63 	 -51.6164 	 
