34

S 	 -101.007 	 2.43444 	 -123.4 	 
C 	 -101.979 	 2.68475 	 -121.966 	 
C 	 -101.532 	 1.89892 	 -120.924 	 
C 	 -100.498 	 1.04166 	 -121.429 	 
C 	 -100.141 	 1.15899 	 -122.759 	 
H 	 -100.01 	 0.219688 	 -120.898 	 
C 	 -102.071 	 1.88644 	 -119.495 	 
H 	 -101.792 	 2.83644 	 -119.123 	 
H 	 -101.509 	 1.0555 	 -119.094 	 
C 	 -103.609 	 1.69367 	 -119.508 	 
H 	 -104.175 	 2.4825 	 -120.023 	 
H 	 -103.801 	 0.72442 	 -120.056 	 
C 	 -104.266 	 1.47294 	 -118.068 	 
H 	 -103.671 	 0.720328 	 -117.49 	 
H 	 -104.345 	 2.41963 	 -117.523 	 
H 	 -105.33 	 1.09839 	 -118.193 	 
S 	 -99.737 	 0.0118187 	 -125.289 	 
C 	 -98.2842 	 -0.91507 	 -125.497 	 
C 	 -97.3571 	 -0.758569 	 -124.465 	 
C 	 -97.9038 	 0.0178607 	 -123.394 	 
C 	 -99.2784 	 0.28288 	 -123.578 	 
H 	 -96.3097 	 -1.17296 	 -124.611 	 
C 	 -96.9997 	 0.526406 	 -122.214 	 
H 	 -95.9544 	 0.295075 	 -122.491 	 
H 	 -97.2832 	 0.0130886 	 -121.291 	 
C 	 -97.049 	 1.99789 	 -121.827 	 
H 	 -96.5798 	 2.17876 	 -120.86 	 
H 	 -98.0959 	 2.22917 	 -121.792 	 
C 	 -96.4718 	 2.98602 	 -122.869 	 
H 	 -95.4085 	 2.82463 	 -123.092 	 
H 	 -96.4915 	 4.08639 	 -122.624 	 
H 	 -96.9684 	 2.85234 	 -123.784 	 
H 	 -102.871 	 3.26584 	 -121.87 	 
H 	 -97.9632 	 -1.49731 	 -126.413 	 
