34

S 	 -131.854 	 68.5276 	 -65.3512 	 
C 	 -132.191 	 67.5612 	 -66.8014 	 
C 	 -133.534 	 67.6968 	 -67.1769 	 
C 	 -134.245 	 68.5746 	 -66.3389 	 
C 	 -133.558 	 69.0337 	 -65.2023 	 
H 	 -135.279 	 68.7165 	 -66.4327 	 
C 	 -134.041 	 67.0495 	 -68.3933 	 
H 	 -135.058 	 66.837 	 -68.1819 	 
H 	 -133.637 	 66.0781 	 -68.5445 	 
C 	 -133.883 	 67.9163 	 -69.6699 	 
H 	 -132.83 	 68.1921 	 -69.8162 	 
H 	 -134.106 	 67.3329 	 -70.5269 	 
C 	 -134.662 	 69.1839 	 -69.5858 	 
H 	 -134.346 	 69.9205 	 -70.3086 	 
H 	 -135.69 	 69.1069 	 -69.8459 	 
H 	 -134.57 	 69.6694 	 -68.6193 	 
S 	 -135.322 	 69.3258 	 -63.1862 	 
C 	 -135.351 	 70.792 	 -62.2169 	 
C 	 -134.402 	 71.6848 	 -62.7094 	 
C 	 -133.529 	 71.1637 	 -63.6997 	 
C 	 -134.024 	 69.9147 	 -64.1761 	 
H 	 -134.319 	 72.5823 	 -62.1476 	 
C 	 -132.274 	 71.8759 	 -64.1915 	 
H 	 -131.512 	 71.1683 	 -64.5432 	 
H 	 -131.843 	 72.2219 	 -63.2912 	 
C 	 -132.444 	 73.0466 	 -65.1569 	 
H 	 -131.499 	 73.4348 	 -65.5075 	 
H 	 -133.03 	 73.8807 	 -64.7585 	 
C 	 -133.2 	 72.725 	 -66.455 	 
H 	 -134.277 	 72.4869 	 -66.4263 	 
H 	 -132.721 	 71.9384 	 -66.9989 	 
H 	 -133.074 	 73.5944 	 -67.0262 	 
H 	 -131.417 	 67.0695 	 -67.3706 	 
H 	 -135.958 	 70.9762 	 -61.337 	 
