34

S 	 -70.8657 	 0.155113 	 15.0249 	 
C 	 -71.7133 	 1.1281 	 13.7966 	 
C 	 -73.067 	 0.921987 	 13.8239 	 
C 	 -73.4669 	 0.0665633 	 14.8387 	 
C 	 -72.4191 	 -0.413456 	 15.6156 	 
H 	 -74.4882 	 -0.253379 	 15.1021 	 
C 	 -74.0318 	 1.44838 	 12.6614 	 
H 	 -74.7573 	 0.617816 	 12.4286 	 
H 	 -73.53 	 1.60301 	 11.6736 	 
C 	 -74.7474 	 2.74932 	 13.0273 	 
H 	 -74.074 	 3.62437 	 12.9265 	 
H 	 -75.4947 	 2.84696 	 12.2549 	 
C 	 -75.4557 	 2.80279 	 14.3195 	 
H 	 -76.177 	 3.56322 	 14.4906 	 
H 	 -76.0191 	 1.89533 	 14.5154 	 
H 	 -74.7367 	 2.93491 	 15.1076 	 
S 	 -71.6972 	 -2.94794 	 16.4373 	 
C 	 -72.2914 	 -3.57314 	 17.8449 	 
C 	 -72.9437 	 -2.59078 	 18.5941 	 
C 	 -73.0337 	 -1.32149 	 18.022 	 
C 	 -72.4088 	 -1.32768 	 16.7413 	 
H 	 -73.3762 	 -2.8546 	 19.5278 	 
C 	 -73.8802 	 -0.159826 	 18.4716 	 
H 	 -74.519 	 -0.540901 	 19.27 	 
H 	 -74.4908 	 0.0782831 	 17.6962 	 
C 	 -73.2239 	 1.04928 	 19.1458 	 
H 	 -72.4409 	 1.20973 	 18.4468 	 
H 	 -72.6601 	 0.835615 	 20.0808 	 
C 	 -74.2461 	 2.18789 	 19.1602 	 
H 	 -73.7629 	 3.17217 	 19.3348 	 
H 	 -74.9828 	 2.1256 	 19.9105 	 
H 	 -74.7233 	 2.1745 	 18.2322 	 
H 	 -71.3502 	 1.70148 	 12.9783 	 
H 	 -72.1077 	 -4.61054 	 18.1439 	 
