34

S 	 -129.088 	 65.5787 	 -58.1312 	 
C 	 -128.866 	 67.0173 	 -57.2858 	 
C 	 -129.145 	 68.1125 	 -58.1038 	 
C 	 -129.551 	 67.6909 	 -59.4163 	 
C 	 -129.609 	 66.318 	 -59.6492 	 
H 	 -129.839 	 68.3786 	 -60.2762 	 
C 	 -129.121 	 69.5329 	 -57.6441 	 
H 	 -129.195 	 69.5418 	 -56.6251 	 
H 	 -130.041 	 70.0412 	 -57.8154 	 
C 	 -127.924 	 70.3534 	 -58.0176 	 
H 	 -127.019 	 69.8256 	 -58.0185 	 
H 	 -128.055 	 70.7159 	 -59.0512 	 
C 	 -127.751 	 71.5773 	 -57.0395 	 
H 	 -127.191 	 71.2095 	 -56.2582 	 
H 	 -127.182 	 72.3799 	 -57.4998 	 
H 	 -128.662 	 72.128 	 -56.8259 	 
S 	 -131.362 	 64.5838 	 -60.5524 	 
C 	 -131.179 	 63.7913 	 -62.1755 	 
C 	 -130.349 	 64.529 	 -62.9322 	 
C 	 -129.555 	 65.468 	 -62.2124 	 
C 	 -129.994 	 65.5959 	 -60.8837 	 
H 	 -130.159 	 64.3121 	 -63.9907 	 
C 	 -128.269 	 66.0044 	 -62.8418 	 
H 	 -128.006 	 66.9327 	 -62.3555 	 
H 	 -128.58 	 66.4727 	 -63.8205 	 
C 	 -127.147 	 65 	 -62.8699 	 
H 	 -126.265 	 65.3833 	 -63.3986 	 
H 	 -127.311 	 64.23 	 -63.5099 	 
C 	 -126.723 	 64.4476 	 -61.5172 	 
H 	 -126.205 	 65.251 	 -61.004 	 
H 	 -125.984 	 63.6952 	 -61.6569 	 
H 	 -127.584 	 64.1132 	 -60.9677 	 
H 	 -128.657 	 67.0665 	 -56.2728 	 
H 	 -131.739 	 62.9685 	 -62.5451 	 
