34

S 	 -97.6585 	 42.1089 	 -87.7238 	 
C 	 -97.0949 	 40.5529 	 -87.0886 	 
C 	 -96.3779 	 39.8917 	 -88.0445 	 
C 	 -96.0818 	 40.6788 	 -89.2153 	 
C 	 -96.9119 	 41.8315 	 -89.2813 	 
H 	 -95.4185 	 40.303 	 -90.0489 	 
C 	 -95.7132 	 38.5542 	 -87.9869 	 
H 	 -94.7064 	 38.7727 	 -88.2321 	 
H 	 -96.1535 	 37.9197 	 -88.7451 	 
C 	 -95.6591 	 37.7049 	 -86.6786 	 
H 	 -95.2543 	 38.2414 	 -85.8298 	 
H 	 -96.6676 	 37.5812 	 -86.3628 	 
C 	 -94.865 	 36.3211 	 -86.6196 	 
H 	 -93.8179 	 36.4947 	 -86.7426 	 
H 	 -94.982 	 35.8075 	 -85.646 	 
H 	 -95.144 	 35.684 	 -87.4415 	 
S 	 -97.0578 	 44.4529 	 -90.1475 	 
C 	 -97.4572 	 44.7788 	 -91.767 	 
C 	 -97.4933 	 43.6192 	 -92.5015 	 
C 	 -97.1568 	 42.4616 	 -91.7779 	 
C 	 -96.895 	 42.7392 	 -90.3897 	 
H 	 -97.715 	 43.6983 	 -93.5306 	 
C 	 -97.2108 	 41.1338 	 -92.4896 	 
H 	 -96.3307 	 40.6749 	 -92.0807 	 
H 	 -97.1871 	 41.2061 	 -93.6014 	 
C 	 -98.4234 	 40.2467 	 -91.9858 	 
H 	 -98.1001 	 39.9237 	 -91.0143 	 
H 	 -98.4858 	 39.3358 	 -92.6475 	 
C 	 -99.7925 	 40.9287 	 -91.9204 	 
H 	 -100.544 	 40.2281 	 -91.5652 	 
H 	 -99.8855 	 41.2406 	 -92.9964 	 
H 	 -99.8933 	 41.8116 	 -91.3829 	 
H 	 -97.4639 	 40.0248 	 -86.2707 	 
H 	 -97.6708 	 45.7554 	 -92.2346 	 
