34

S 	 -130.696 	 4.63648 	 6.73526 	 
C 	 -130.153 	 4.64976 	 5.04237 	 
C 	 -129.425 	 3.48904 	 4.7997 	 
C 	 -129.303 	 2.59036 	 5.93884 	 
C 	 -130.061 	 2.93757 	 7.00852 	 
H 	 -128.848 	 1.58802 	 6.02895 	 
C 	 -128.851 	 3.0408 	 3.43133 	 
H 	 -129.463 	 3.35691 	 2.62965 	 
H 	 -128.812 	 1.95355 	 3.59772 	 
C 	 -127.483 	 3.47226 	 3.16394 	 
H 	 -127.363 	 4.51693 	 3.38586 	 
H 	 -126.801 	 3.00093 	 3.84676 	 
C 	 -126.996 	 3.0835 	 1.78487 	 
H 	 -125.919 	 2.959 	 1.66062 	 
H 	 -127.447 	 2.15144 	 1.4299 	 
H 	 -127.336 	 3.84841 	 1.02648 	 
S 	 -130.613 	 3.24069 	 9.68876 	 
C 	 -130.571 	 1.87524 	 10.7672 	 
C 	 -130.213 	 0.716285 	 10.1078 	 
C 	 -130.078 	 0.940242 	 8.71573 	 
C 	 -130.144 	 2.27148 	 8.33328 	 
H 	 -130.155 	 -0.203534 	 10.6225 	 
C 	 -129.814 	 -0.247713 	 7.70393 	 
H 	 -128.781 	 -0.251574 	 7.50339 	 
H 	 -130.258 	 0.0533059 	 6.79281 	 
C 	 -130.132 	 -1.67071 	 8.19801 	 
H 	 -130.283 	 -2.22413 	 7.26802 	 
H 	 -131.125 	 -1.71391 	 8.7631 	 
C 	 -128.961 	 -2.37497 	 8.96033 	 
H 	 -129.269 	 -3.36683 	 9.32514 	 
H 	 -128.678 	 -1.75238 	 9.82783 	 
H 	 -128.127 	 -2.53504 	 8.30902 	 
H 	 -130.063 	 5.46386 	 4.41976 	 
H 	 -130.745 	 1.96166 	 11.7948 	 
