34

S 	 -55.4006 	 13.529 	 -85.7752 	 
C 	 -57.0417 	 13.452 	 -86.4306 	 
C 	 -57.5829 	 14.6806 	 -86.5735 	 
C 	 -56.6906 	 15.7096 	 -86.1279 	 
C 	 -55.4515 	 15.2755 	 -85.6184 	 
H 	 -56.951 	 16.7238 	 -86.0574 	 
C 	 -59.038 	 14.9713 	 -87.0693 	 
H 	 -59.1237 	 14.2417 	 -87.8425 	 
H 	 -59.114 	 15.871 	 -87.6891 	 
C 	 -60.1338 	 14.8918 	 -85.9971 	 
H 	 -60.0806 	 13.8664 	 -85.4702 	 
H 	 -60.0054 	 15.5725 	 -85.1601 	 
C 	 -61.528 	 15.3131 	 -86.5763 	 
H 	 -61.7822 	 14.6722 	 -87.3177 	 
H 	 -62.2931 	 15.1725 	 -85.751 	 
H 	 -61.5785 	 16.3175 	 -86.9615 	 
S 	 -53.2625 	 15.3451 	 -83.773 	 
C 	 -52.74 	 16.9327 	 -83.2646 	 
C 	 -53.022 	 17.8876 	 -84.1813 	 
C 	 -53.9455 	 17.4337 	 -85.1575 	 
C 	 -54.3171 	 16.0661 	 -85.0261 	 
H 	 -52.7363 	 18.9017 	 -83.886 	 
C 	 -54.6124 	 18.3873 	 -86.133 	 
H 	 -55.3835 	 18.9493 	 -85.6026 	 
H 	 -55.2407 	 17.9517 	 -86.847 	 
C 	 -53.7564 	 19.3694 	 -86.8588 	 
H 	 -52.9997 	 18.7564 	 -87.3716 	 
H 	 -53.2063 	 19.9431 	 -86.0963 	 
C 	 -54.4273 	 20.1773 	 -87.9442 	 
H 	 -54.2449 	 19.703 	 -88.9177 	 
H 	 -53.7906 	 21.1264 	 -88.0807 	 
H 	 -55.4855 	 20.4464 	 -87.7882 	 
H 	 -57.5621 	 12.556 	 -86.5178 	 
H 	 -51.9103 	 17.0789 	 -82.6035 	 
