34

S 	 -117.346 	 15.8291 	 -113.264 	 
C 	 -115.801 	 16.3338 	 -113.89 	 
C 	 -114.857 	 15.3378 	 -113.753 	 
C 	 -115.489 	 14.0787 	 -113.552 	 
C 	 -116.848 	 14.1772 	 -113.287 	 
H 	 -114.959 	 13.1606 	 -113.42 	 
C 	 -113.411 	 15.3624 	 -114.025 	 
H 	 -113.361 	 16.1079 	 -114.749 	 
H 	 -113.176 	 14.3968 	 -114.418 	 
C 	 -112.511 	 15.8066 	 -112.845 	 
H 	 -113.113 	 16.5787 	 -112.203 	 
H 	 -112.278 	 14.9549 	 -112.206 	 
C 	 -111.165 	 16.4268 	 -113.309 	 
H 	 -110.455 	 15.6293 	 -113.584 	 
H 	 -111.204 	 17.1866 	 -114.157 	 
H 	 -110.708 	 17.0359 	 -112.467 	 
S 	 -118.827 	 13.2438 	 -111.634 	 
C 	 -119.496 	 11.7001 	 -111.823 	 
C 	 -118.893 	 11.0774 	 -112.878 	 
C 	 -117.929 	 11.8385 	 -113.602 	 
C 	 -117.777 	 13.0637 	 -113.013 	 
H 	 -119.151 	 10.0576 	 -113.122 	 
C 	 -117.192 	 11.3424 	 -114.844 	 
H 	 -116.618 	 12.1489 	 -115.356 	 
H 	 -118.001 	 10.9777 	 -115.545 	 
C 	 -116.247 	 10.2433 	 -114.605 	 
H 	 -116.765 	 9.37178 	 -114.087 	 
H 	 -115.397 	 10.5136 	 -113.854 	 
C 	 -115.705 	 9.7831 	 -115.992 	 
H 	 -114.912 	 9.0316 	 -115.953 	 
H 	 -115.151 	 10.5351 	 -116.489 	 
H 	 -116.501 	 9.43635 	 -116.6 	 
H 	 -115.596 	 17.341 	 -113.876 	 
H 	 -120.271 	 11.2509 	 -111.188 	 
