34

S 	 -101.245 	 19.9129 	 -121.921 	 
C 	 -102.388 	 21.218 	 -122.211 	 
C 	 -103.709 	 20.86 	 -122.001 	 
C 	 -103.81 	 19.4337 	 -121.787 	 
C 	 -102.591 	 18.7217 	 -121.776 	 
H 	 -104.737 	 18.8437 	 -121.647 	 
C 	 -104.952 	 21.8594 	 -122.161 	 
H 	 -105.827 	 21.1704 	 -122.288 	 
H 	 -104.877 	 22.51 	 -123.08 	 
C 	 -105.17 	 22.7391 	 -120.909 	 
H 	 -105.027 	 22.0792 	 -120.003 	 
H 	 -104.525 	 23.6476 	 -120.885 	 
C 	 -106.622 	 23.1323 	 -120.904 	 
H 	 -106.962 	 23.8852 	 -121.586 	 
H 	 -107.317 	 22.2475 	 -121.041 	 
H 	 -106.814 	 23.6155 	 -119.956 	 
S 	 -102.19 	 16.6816 	 -120.049 	 
C 	 -102.23 	 15.0471 	 -120.644 	 
C 	 -102.286 	 15.0653 	 -122.034 	 
C 	 -102.518 	 16.3013 	 -122.659 	 
C 	 -102.427 	 17.2945 	 -121.681 	 
H 	 -102.177 	 14.1122 	 -122.532 	 
C 	 -102.79 	 16.5751 	 -124.187 	 
H 	 -101.859 	 16.658 	 -124.664 	 
H 	 -103.1 	 17.6021 	 -124.164 	 
C 	 -103.71 	 15.5216 	 -124.984 	 
H 	 -104.681 	 15.4159 	 -124.489 	 
H 	 -103.12 	 14.5356 	 -124.928 	 
C 	 -103.764 	 15.9708 	 -126.403 	 
H 	 -102.807 	 16.3684 	 -126.821 	 
H 	 -104.551 	 16.7418 	 -126.436 	 
H 	 -104.115 	 15.1419 	 -127.096 	 
H 	 -102.193 	 22.1942 	 -122.656 	 
H 	 -101.954 	 14.2365 	 -120.024 	 
