34

S 	 -106.504 	 57.7077 	 -100.843 	 
C 	 -107.797 	 57.51 	 -102.046 	 
C 	 -108.985 	 57.983 	 -101.498 	 
C 	 -108.898 	 58.3722 	 -100.128 	 
C 	 -107.611 	 58.2625 	 -99.5922 	 
H 	 -109.67 	 58.8507 	 -99.6405 	 
C 	 -110.228 	 58.1205 	 -102.338 	 
H 	 -111.065 	 57.7901 	 -101.734 	 
H 	 -110.189 	 57.4773 	 -103.229 	 
C 	 -110.494 	 59.5624 	 -102.992 	 
H 	 -111.222 	 59.4282 	 -103.809 	 
H 	 -110.979 	 60.2292 	 -102.297 	 
C 	 -109.201 	 60.0455 	 -103.695 	 
H 	 -108.758 	 59.2945 	 -104.339 	 
H 	 -109.515 	 60.959 	 -104.312 	 
H 	 -108.453 	 60.2833 	 -102.924 	 
S 	 -106.677 	 57.1487 	 -97.2524 	 
C 	 -106.752 	 58.0325 	 -95.7599 	 
C 	 -106.874 	 59.3856 	 -96.058 	 
C 	 -107.134 	 59.6818 	 -97.4673 	 
C 	 -107.184 	 58.5576 	 -98.2552 	 
H 	 -106.796 	 60.1849 	 -95.3596 	 
C 	 -107.318 	 61.1057 	 -97.945 	 
H 	 -107.465 	 61.103 	 -98.9584 	 
H 	 -106.312 	 61.5535 	 -97.9242 	 
C 	 -108.432 	 61.999 	 -97.2355 	 
H 	 -108.04 	 63.0435 	 -97.3586 	 
H 	 -108.531 	 61.8079 	 -96.1792 	 
C 	 -109.792 	 61.7998 	 -97.9642 	 
H 	 -110.639 	 62.2741 	 -97.4954 	 
H 	 -110.016 	 60.7885 	 -98.0323 	 
H 	 -109.771 	 62.2058 	 -98.9595 	 
H 	 -107.538 	 57.1083 	 -103.004 	 
H 	 -106.437 	 57.7866 	 -94.7975 	 
