34

S 	 -138.684 	 9.82937 	 5.34932 	 
C 	 -137.829 	 10.2905 	 3.90458 	 
C 	 -138.459 	 9.81022 	 2.75062 	 
C 	 -139.628 	 9.00669 	 3.1298 	 
C 	 -139.866 	 8.87417 	 4.47266 	 
H 	 -140.294 	 8.55585 	 2.48131 	 
C 	 -137.948 	 10.0566 	 1.32902 	 
H 	 -137.213 	 10.8716 	 1.35352 	 
H 	 -138.846 	 10.5258 	 0.893501 	 
C 	 -137.569 	 8.92472 	 0.491155 	 
H 	 -136.588 	 8.47103 	 0.589996 	 
H 	 -138.245 	 8.09072 	 0.653434 	 
C 	 -137.786 	 9.23207 	 -0.977126 	 
H 	 -138.851 	 9.14251 	 -1.29898 	 
H 	 -137.412 	 10.2668 	 -1.15054 	 
H 	 -137.061 	 8.67057 	 -1.60175 	 
S 	 -140.585 	 6.57546 	 5.87427 	 
C 	 -142.347 	 6.31531 	 6.1613 	 
C 	 -143.095 	 7.1917 	 5.40464 	 
C 	 -142.323 	 8.17433 	 4.77095 	 
C 	 -140.971 	 8.08036 	 5.05629 	 
H 	 -144.135 	 7.10684 	 5.42516 	 
C 	 -142.998 	 9.41449 	 4.17785 	 
H 	 -142.427 	 10.2885 	 4.43233 	 
H 	 -143.917 	 9.68488 	 4.70537 	 
C 	 -143.338 	 9.34063 	 2.6723 	 
H 	 -143.981 	 8.49035 	 2.49095 	 
H 	 -142.535 	 9.07191 	 2.03541 	 
C 	 -144.12 	 10.5604 	 2.12953 	 
H 	 -143.722 	 11.4066 	 2.64259 	 
H 	 -145.18 	 10.5965 	 2.39714 	 
H 	 -144.046 	 10.7078 	 1.07143 	 
H 	 -136.816 	 10.7474 	 3.81391 	 
H 	 -142.792 	 5.42163 	 6.61906 	 
