34

S 	 -44.7697 	 11.8054 	 25.2423 	 
C 	 -46.5073 	 11.7328 	 25.3059 	 
C 	 -47.0315 	 12.3258 	 26.4146 	 
C 	 -46.0255 	 13.1725 	 27.0214 	 
C 	 -44.8055 	 13.1056 	 26.3723 	 
H 	 -46.2053 	 13.94 	 27.7868 	 
C 	 -48.5174 	 12.4401 	 26.7283 	 
H 	 -48.9299 	 12.62 	 25.6602 	 
H 	 -48.8145 	 13.3831 	 27.2584 	 
C 	 -49.2106 	 11.2945 	 27.4648 	 
H 	 -50.265 	 11.4979 	 27.5097 	 
H 	 -49.1208 	 10.3775 	 26.8158 	 
C 	 -48.5286 	 10.7945 	 28.739 	 
H 	 -48.6554 	 11.5218 	 29.5872 	 
H 	 -48.9917 	 9.83955 	 29.0483 	 
H 	 -47.4427 	 10.5572 	 28.4754 	 
S 	 -42.2554 	 13.0363 	 27.2309 	 
C 	 -41.3813 	 14.481 	 27.614 	 
C 	 -42.0809 	 15.6013 	 27.2487 	 
C 	 -43.4043 	 15.3363 	 26.7408 	 
C 	 -43.5991 	 13.9389 	 26.6774 	 
H 	 -41.5813 	 16.5392 	 27.3062 	 
C 	 -44.4968 	 16.3671 	 26.4124 	 
H 	 -44.572 	 17.0766 	 27.2076 	 
H 	 -45.4144 	 15.891 	 26.2055 	 
C 	 -44.1929 	 17.1697 	 25.1256 	 
H 	 -43.2662 	 17.674 	 25.2503 	 
H 	 -45.015 	 17.9063 	 24.9468 	 
C 	 -44.0531 	 16.3116 	 23.8828 	 
H 	 -43.0545 	 15.9644 	 23.974 	 
H 	 -44.2773 	 16.7774 	 22.9188 	 
H 	 -44.6851 	 15.4523 	 23.8573 	 
H 	 -47.1437 	 11.0706 	 24.7198 	 
H 	 -40.4156 	 14.4889 	 28.1104 	 
