34

S 	 -46.3606 	 10.5624 	 28.4848 	 
C 	 -47.4571 	 10.2522 	 27.1287 	 
C 	 -47.647 	 11.4062 	 26.3605 	 
C 	 -46.9472 	 12.5069 	 26.8857 	 
C 	 -46.1943 	 12.2506 	 28.0357 	 
H 	 -47.0126 	 13.6402 	 26.5313 	 
C 	 -48.3304 	 11.3542 	 24.9581 	 
H 	 -47.8281 	 10.5646 	 24.4356 	 
H 	 -48.0116 	 12.2598 	 24.5237 	 
C 	 -49.8902 	 10.9961 	 25.1293 	 
H 	 -50.2187 	 10.9053 	 24.0924 	 
H 	 -50.0183 	 9.99788 	 25.5492 	 
C 	 -50.729 	 12.0568 	 25.8756 	 
H 	 -50.2717 	 12.2123 	 26.8681 	 
H 	 -50.6237 	 13.0044 	 25.4734 	 
H 	 -51.7959 	 11.8023 	 26.0715 	 
S 	 -43.6776 	 12.5791 	 29.1019 	 
C 	 -43.2119 	 14.2079 	 29.4979 	 
C 	 -44.205 	 15.1284 	 29.5309 	 
C 	 -45.4744 	 14.5731 	 29.0523 	 
C 	 -45.3569 	 13.1575 	 28.8229 	 
H 	 -43.895 	 16.1808 	 29.8025 	 
C 	 -46.6683 	 15.3743 	 28.7319 	 
H 	 -47.1067 	 15.5245 	 29.6924 	 
H 	 -47.4411 	 14.8172 	 28.2488 	 
C 	 -46.4275 	 16.7257 	 28.1319 	 
H 	 -45.7075 	 17.2726 	 28.7596 	 
H 	 -47.329 	 17.3246 	 28.2519 	 
C 	 -45.8911 	 16.5455 	 26.6305 	 
H 	 -45.0206 	 15.9139 	 26.4665 	 
H 	 -45.8061 	 17.5069 	 26.1061 	 
H 	 -46.6145 	 16.0708 	 25.9618 	 
H 	 -47.5663 	 9.3207 	 26.5276 	 
H 	 -42.1409 	 14.4778 	 29.6525 	 
