34

S 	 -105.918 	 37.572 	 -18.5521 	 
C 	 -105.359 	 36.9404 	 -17.0658 	 
C 	 -105.288 	 35.5845 	 -17.0418 	 
C 	 -105.612 	 34.9937 	 -18.29 	 
C 	 -105.982 	 35.924 	 -19.2294 	 
H 	 -105.709 	 33.9076 	 -18.5228 	 
C 	 -104.77 	 34.8383 	 -15.8117 	 
H 	 -105.38 	 33.9486 	 -15.665 	 
H 	 -105.05 	 35.4319 	 -14.9584 	 
C 	 -103.278 	 34.5688 	 -15.9281 	 
H 	 -103.204 	 33.8205 	 -16.6019 	 
H 	 -102.69 	 35.4629 	 -16.2844 	 
C 	 -102.743 	 34.1734 	 -14.5574 	 
H 	 -101.694 	 33.8836 	 -14.5476 	 
H 	 -102.836 	 34.9944 	 -13.8322 	 
H 	 -103.406 	 33.3419 	 -14.1855 	 
S 	 -107.805 	 36.292 	 -21.1958 	 
C 	 -107.534 	 35.8081 	 -22.8094 	 
C 	 -106.412 	 35.0076 	 -22.9445 	 
C 	 -105.681 	 34.9557 	 -21.6513 	 
C 	 -106.295 	 35.6208 	 -20.6152 	 
H 	 -106.108 	 34.6087 	 -23.9124 	 
C 	 -104.291 	 34.4171 	 -21.5222 	 
H 	 -103.924 	 33.816 	 -22.3591 	 
H 	 -104.401 	 33.8331 	 -20.6815 	 
C 	 -103.216 	 35.5256 	 -21.1941 	 
H 	 -103.526 	 36.1484 	 -20.4255 	 
H 	 -103.127 	 36.1905 	 -22.106 	 
C 	 -101.812 	 34.9796 	 -20.739 	 
H 	 -101.26 	 35.8191 	 -20.314 	 
H 	 -101.281 	 34.6069 	 -21.5986 	 
H 	 -101.867 	 34.2518 	 -19.978 	 
H 	 -105.115 	 37.5533 	 -16.2462 	 
H 	 -108.141 	 36.0602 	 -23.7293 	 
