34

S 	 -86.7625 	 3.47137 	 -116.651 	 
C 	 -86.4893 	 1.7295 	 -116.63 	 
C 	 -87.2105 	 1.0988 	 -117.619 	 
C 	 -88.1028 	 1.99792 	 -118.301 	 
C 	 -88.0873 	 3.28982 	 -117.812 	 
H 	 -88.725 	 1.67912 	 -119.115 	 
C 	 -87.273 	 -0.454562 	 -117.865 	 
H 	 -86.2869 	 -0.917578 	 -117.91 	 
H 	 -87.7665 	 -0.560874 	 -118.841 	 
C 	 -88.1508 	 -1.19808 	 -116.826 	 
H 	 -87.9813 	 -2.33613 	 -116.716 	 
H 	 -87.7493 	 -0.861357 	 -115.852 	 
C 	 -89.5744 	 -0.700261 	 -116.704 	 
H 	 -89.7216 	 0.15439 	 -116.117 	 
H 	 -89.9876 	 -0.440789 	 -117.647 	 
H 	 -90.117 	 -1.54546 	 -116.314 	 
S 	 -87.9817 	 5.82349 	 -118.986 	 
C 	 -89.4736 	 6.70424 	 -119.032 	 
C 	 -90.5366 	 5.94248 	 -118.702 	 
C 	 -90.2537 	 4.55732 	 -118.446 	 
C 	 -88.845 	 4.44203 	 -118.333 	 
H 	 -91.5146 	 6.42609 	 -118.663 	 
C 	 -91.4071 	 3.59731 	 -118.125 	 
H 	 -91.2042 	 2.66586 	 -118.695 	 
H 	 -92.3393 	 3.91829 	 -118.542 	 
C 	 -91.458 	 3.18087 	 -116.67 	 
H 	 -91.4897 	 4.12174 	 -116.066 	 
H 	 -90.4558 	 2.73064 	 -116.38 	 
C 	 -92.6394 	 2.2561 	 -116.261 	 
H 	 -92.4485 	 1.22966 	 -116.484 	 
H 	 -93.4599 	 2.55891 	 -116.931 	 
H 	 -92.8821 	 2.32649 	 -115.235 	 
H 	 -85.6748 	 1.2913 	 -116.123 	 
H 	 -89.4998 	 7.76284 	 -119.207 	 
