34

S 	 -56.5698 	 1.75734 	 -19.853 	 
C 	 -57.5981 	 3.11687 	 -19.938 	 
C 	 -58.8007 	 2.86208 	 -20.5702 	 
C 	 -58.9202 	 1.45679 	 -20.8593 	 
C 	 -57.8495 	 0.742367 	 -20.4813 	 
H 	 -59.7722 	 1.0474 	 -21.3707 	 
C 	 -59.9057 	 3.79362 	 -20.9737 	 
H 	 -59.7184 	 4.74512 	 -20.6159 	 
H 	 -60.7413 	 3.64811 	 -20.2887 	 
C 	 -60.2947 	 3.92829 	 -22.4552 	 
H 	 -59.4223 	 3.85283 	 -23.0589 	 
H 	 -60.8868 	 2.98605 	 -22.7567 	 
C 	 -60.9675 	 5.31874 	 -22.8479 	 
H 	 -61.3788 	 5.27778 	 -23.8789 	 
H 	 -61.6577 	 5.47521 	 -22.0534 	 
H 	 -60.1985 	 6.16345 	 -22.804 	 
S 	 -56.4962 	 -0.849967 	 -22.1202 	 
C 	 -56.9598 	 -2.54888 	 -22.1141 	 
C 	 -57.7261 	 -2.94337 	 -20.9913 	 
C 	 -58.1257 	 -1.77049 	 -20.2613 	 
C 	 -57.5581 	 -0.619516 	 -20.8204 	 
H 	 -58.0061 	 -4.02045 	 -20.8847 	 
C 	 -58.8785 	 -1.83652 	 -18.899 	 
H 	 -58.8686 	 -0.893942 	 -18.3112 	 
H 	 -58.3424 	 -2.52258 	 -18.2687 	 
C 	 -60.3669 	 -2.33401 	 -18.9958 	 
H 	 -60.6607 	 -2.4328 	 -17.9489 	 
H 	 -60.2743 	 -3.32858 	 -19.4353 	 
C 	 -61.2915 	 -1.43559 	 -19.7769 	 
H 	 -62.3136 	 -1.78037 	 -19.6111 	 
H 	 -61.0281 	 -1.40162 	 -20.8375 	 
H 	 -61.2054 	 -0.382522 	 -19.4834 	 
H 	 -57.2989 	 4.1524 	 -19.6287 	 
H 	 -56.4453 	 -3.338 	 -22.6626 	 
