34

S 	 -104.409 	 0.700946 	 -107.523 	 
C 	 -104.038 	 1.32938 	 -105.917 	 
C 	 -103.253 	 0.44367 	 -105.219 	 
C 	 -102.783 	 -0.616546 	 -105.994 	 
C 	 -103.27 	 -0.639737 	 -107.318 	 
H 	 -102.192 	 -1.46647 	 -105.618 	 
C 	 -102.822 	 0.600409 	 -103.734 	 
H 	 -102.515 	 -0.376559 	 -103.404 	 
H 	 -103.658 	 0.954096 	 -103.169 	 
C 	 -101.623 	 1.51355 	 -103.408 	 
H 	 -100.832 	 1.30624 	 -104.153 	 
H 	 -101.843 	 2.57406 	 -103.522 	 
C 	 -101.032 	 0.93255 	 -102.112 	 
H 	 -100.111 	 1.49503 	 -101.878 	 
H 	 -101.778 	 1.04967 	 -101.318 	 
H 	 -100.82 	 -0.113407 	 -102.174 	 
S 	 -104.635 	 -2.07903 	 -109.212 	 
C 	 -103.764 	 -3.21581 	 -110.243 	 
C 	 -102.404 	 -3.25392 	 -109.922 	 
C 	 -102.098 	 -2.424 	 -108.804 	 
C 	 -103.172 	 -1.6586 	 -108.336 	 
H 	 -101.774 	 -3.85655 	 -110.54 	 
C 	 -100.663 	 -2.25655 	 -108.282 	 
H 	 -99.9582 	 -2.9676 	 -108.76 	 
H 	 -100.774 	 -2.40746 	 -107.243 	 
C 	 -99.9838 	 -0.874983 	 -108.461 	 
H 	 -100.562 	 -0.127773 	 -107.882 	 
H 	 -100.083 	 -0.587108 	 -109.493 	 
C 	 -98.4521 	 -0.814359 	 -108.225 	 
H 	 -97.8154 	 -1.36826 	 -108.997 	 
H 	 -98.2765 	 -1.32118 	 -107.287 	 
H 	 -98.0415 	 0.204847 	 -108.182 	 
H 	 -104.457 	 2.26125 	 -105.486 	 
H 	 -103.967 	 -3.89691 	 -111.086 	 
