34

S 	 -2.79499 	 -30.9181 	 -115.914 	 
C 	 -4.35888 	 -30.6978 	 -116.729 	 
C 	 -5.42769 	 -30.8781 	 -115.876 	 
C 	 -5.00109 	 -31.3907 	 -114.635 	 
C 	 -3.60624 	 -31.4396 	 -114.44 	 
H 	 -5.65933 	 -31.6929 	 -113.803 	 
C 	 -6.81807 	 -30.5984 	 -116.238 	 
H 	 -6.87896 	 -30.32 	 -117.293 	 
H 	 -7.08854 	 -29.6158 	 -115.734 	 
C 	 -7.8853 	 -31.6169 	 -115.877 	 
H 	 -7.4098 	 -32.5635 	 -116.296 	 
H 	 -7.93166 	 -31.6621 	 -114.867 	 
C 	 -9.29509 	 -31.2927 	 -116.405 	 
H 	 -9.35268 	 -31.0243 	 -117.413 	 
H 	 -9.80973 	 -32.276 	 -116.288 	 
H 	 -9.76165 	 -30.5516 	 -115.876 	 
S 	 -1.23515 	 -32.2319 	 -113.299 	 
C 	 -0.967675 	 -32.2812 	 -111.619 	 
C 	 -2.13555 	 -31.7885 	 -110.995 	 
C 	 -3.20672 	 -31.377 	 -111.854 	 
C 	 -2.85322 	 -31.6227 	 -113.166 	 
H 	 -2.12381 	 -31.776 	 -109.892 	 
C 	 -4.48987 	 -30.8458 	 -111.333 	 
H 	 -4.81553 	 -30.0655 	 -112.089 	 
H 	 -4.21197 	 -30.3568 	 -110.413 	 
C 	 -5.51465 	 -31.8386 	 -110.83 	 
H 	 -5.97568 	 -32.3184 	 -111.723 	 
H 	 -6.26964 	 -31.2139 	 -110.351 	 
C 	 -5.0643 	 -32.9171 	 -109.852 	 
H 	 -4.52998 	 -32.4766 	 -108.98 	 
H 	 -4.34569 	 -33.6337 	 -110.298 	 
H 	 -5.91039 	 -33.4655 	 -109.397 	 
H 	 -4.54081 	 -30.5243 	 -117.776 	 
H 	 -0.104601 	 -32.6801 	 -111.039 	 
