34

S 	 -114.876 	 38.6477 	 -118.985 	 
C 	 -113.666 	 38.3266 	 -120.237 	 
C 	 -114.241 	 37.6442 	 -121.308 	 
C 	 -115.673 	 37.6643 	 -121.191 	 
C 	 -116.165 	 38.3488 	 -120.108 	 
H 	 -116.273 	 37.0845 	 -121.812 	 
C 	 -113.512 	 37.056 	 -122.499 	 
H 	 -113.229 	 37.9543 	 -123.047 	 
H 	 -114.256 	 36.4975 	 -123.113 	 
C 	 -112.427 	 36.0569 	 -122.122 	 
H 	 -111.712 	 35.9652 	 -122.907 	 
H 	 -111.774 	 36.4013 	 -121.292 	 
C 	 -113.066 	 34.7413 	 -121.668 	 
H 	 -112.205 	 34.1294 	 -121.34 	 
H 	 -113.68 	 34.8182 	 -120.777 	 
H 	 -113.619 	 34.1932 	 -122.454 	 
S 	 -118.605 	 38.5922 	 -121.193 	 
C 	 -120.016 	 38.5925 	 -120.199 	 
C 	 -119.708 	 38.4555 	 -118.843 	 
C 	 -118.322 	 38.1637 	 -118.632 	 
C 	 -117.567 	 38.3372 	 -119.784 	 
H 	 -120.542 	 38.5008 	 -118.138 	 
C 	 -117.652 	 38.0554 	 -117.228 	 
H 	 -118.374 	 38.4646 	 -116.556 	 
H 	 -116.825 	 38.6984 	 -117.129 	 
C 	 -117.298 	 36.6096 	 -116.776 	 
H 	 -116.738 	 36.635 	 -115.889 	 
H 	 -116.595 	 36.2833 	 -117.527 	 
C 	 -118.545 	 35.6633 	 -116.772 	 
H 	 -118.169 	 34.6614 	 -116.832 	 
H 	 -119.191 	 35.9667 	 -117.588 	 
H 	 -119.081 	 35.6268 	 -115.814 	 
H 	 -112.649 	 38.5225 	 -120.058 	 
H 	 -121.001 	 38.7367 	 -120.728 	 
