34

S 	 33.6399 	 -35.3618 	 -128.7 	 
C 	 33.5744 	 -33.746 	 -128.217 	 
C 	 32.6357 	 -33.0458 	 -128.953 	 
C 	 32.1507 	 -33.816 	 -130.088 	 
C 	 32.514 	 -35.1155 	 -130.025 	 
H 	 31.4758 	 -33.4332 	 -130.819 	 
C 	 32.1317 	 -31.6056 	 -128.807 	 
H 	 33.0404 	 -31.1667 	 -128.47 	 
H 	 31.4587 	 -31.6035 	 -127.978 	 
C 	 31.6228 	 -30.878 	 -130.07 	 
H 	 32.4565 	 -30.9241 	 -130.754 	 
H 	 30.8178 	 -31.5348 	 -130.481 	 
C 	 31.0995 	 -29.4606 	 -129.977 	 
H 	 30.6008 	 -29.3139 	 -129.061 	 
H 	 31.9868 	 -28.8056 	 -129.915 	 
H 	 30.4194 	 -29.1982 	 -130.739 	 
S 	 33.7543 	 -37.1118 	 -131.474 	 
C 	 32.7174 	 -37.9859 	 -132.603 	 
C 	 31.4114 	 -37.5628 	 -132.711 	 
C 	 31.2031 	 -36.3806 	 -131.921 	 
C 	 32.29 	 -36.1124 	 -131.031 	 
H 	 30.6719 	 -37.9411 	 -133.352 	 
C 	 29.9814 	 -35.5871 	 -131.999 	 
H 	 29.393 	 -35.9326 	 -132.871 	 
H 	 30.3138 	 -34.5714 	 -132.291 	 
C 	 29.0849 	 -35.3655 	 -130.773 	 
H 	 28.1595 	 -34.8678 	 -131.1 	 
H 	 29.7003 	 -34.7795 	 -130.067 	 
C 	 28.7577 	 -36.7225 	 -129.932 	 
H 	 28.1955 	 -37.5325 	 -130.405 	 
H 	 28.0733 	 -36.4406 	 -129.13 	 
H 	 29.5851 	 -37.1994 	 -129.501 	 
H 	 34.1321 	 -33.4089 	 -127.351 	 
H 	 33.0037 	 -38.7147 	 -133.359 	 
