34

S 	 -45.1391 	 27.0944 	 30.8476 	 
C 	 -46.2592 	 28.0987 	 31.704 	 
C 	 -47.3925 	 27.4361 	 32.042 	 
C 	 -47.2348 	 26.0422 	 31.919 	 
C 	 -46.0453 	 25.6356 	 31.321 	 
H 	 -47.958 	 25.2877 	 32.0735 	 
C 	 -48.6107 	 28.1669 	 32.5152 	 
H 	 -49.4992 	 27.9541 	 31.7886 	 
H 	 -48.5449 	 29.2602 	 32.5873 	 
C 	 -48.9568 	 27.751 	 33.8891 	 
H 	 -50.0016 	 28.1246 	 34.0493 	 
H 	 -49.0548 	 26.6314 	 33.9065 	 
C 	 -47.9237 	 28.1192 	 34.995 	 
H 	 -48.3952 	 27.761 	 35.9444 	 
H 	 -46.9742 	 27.6669 	 34.8358 	 
H 	 -47.8523 	 29.2185 	 35.0661 	 
S 	 -45.0468 	 23.9319 	 29.4829 	 
C 	 -45.0563 	 22.2015 	 29.7445 	 
C 	 -45.5633 	 21.8798 	 30.978 	 
C 	 -45.9684 	 23.0678 	 31.7113 	 
C 	 -45.6016 	 24.2705 	 31.0925 	 
H 	 -45.6816 	 20.846 	 31.2792 	 
C 	 -46.5681 	 22.9232 	 33.1261 	 
H 	 -46.6344 	 23.9631 	 33.3823 	 
H 	 -45.8308 	 22.4473 	 33.7796 	 
C 	 -47.8976 	 22.2033 	 33.2115 	 
H 	 -47.688 	 21.2447 	 32.7784 	 
H 	 -48.6952 	 22.7102 	 32.6127 	 
C 	 -48.3186 	 22.064 	 34.6504 	 
H 	 -47.7076 	 21.2258 	 35.0696 	 
H 	 -49.372 	 21.8584 	 34.7358 	 
H 	 -48.1083 	 23.023 	 35.231 	 
H 	 -46.1215 	 29.2221 	 31.8774 	 
H 	 -44.8235 	 21.4634 	 29.0153 	 
