34

S 	 -60.7432 	 17.2261 	 -90.9226 	 
C 	 -59.6142 	 18.3504 	 -90.3853 	 
C 	 -58.3565 	 17.7679 	 -90.2593 	 
C 	 -58.4374 	 16.3998 	 -90.5621 	 
C 	 -59.6772 	 15.8778 	 -90.9303 	 
H 	 -57.6113 	 15.7422 	 -90.4105 	 
C 	 -57.1181 	 18.4295 	 -89.5857 	 
H 	 -56.9462 	 17.9624 	 -88.6459 	 
H 	 -57.5322 	 19.3157 	 -89.1258 	 
C 	 -55.7727 	 18.6342 	 -90.3181 	 
H 	 -55.9736 	 19.0695 	 -91.2899 	 
H 	 -55.1257 	 19.4041 	 -89.828 	 
C 	 -55.0548 	 17.3478 	 -90.6257 	 
H 	 -55.5081 	 16.7631 	 -91.3755 	 
H 	 -54.1069 	 17.6451 	 -91.1019 	 
H 	 -54.8656 	 16.8115 	 -89.7118 	 
S 	 -61.9312 	 14.3303 	 -90.9425 	 
C 	 -61.8019 	 12.6723 	 -91.4943 	 
C 	 -60.5673 	 12.3825 	 -92.0926 	 
C 	 -59.5847 	 13.3997 	 -91.8581 	 
C 	 -60.1577 	 14.5284 	 -91.3113 	 
H 	 -60.3995 	 11.4135 	 -92.5451 	 
C 	 -58.1003 	 13.2615 	 -92.2104 	 
H 	 -57.469 	 14.0736 	 -91.7278 	 
H 	 -57.9582 	 13.5258 	 -93.2304 	 
C 	 -57.424 	 11.896 	 -91.8926 	 
H 	 -58.0711 	 11.1352 	 -92.3406 	 
H 	 -57.3413 	 11.7403 	 -90.8567 	 
C 	 -56.0833 	 11.8076 	 -92.4867 	 
H 	 -56.1566 	 12.1014 	 -93.5491 	 
H 	 -55.7643 	 10.7602 	 -92.5383 	 
H 	 -55.2434 	 12.3889 	 -91.9679 	 
H 	 -59.8514 	 19.3343 	 -90.0436 	 
H 	 -62.7011 	 12.0111 	 -91.5491 	 
