34

S 	 -70.2395 	 16.2403 	 -76.0687 	 
C 	 -69.2037 	 15.3405 	 -77.1051 	 
C 	 -68.0941 	 15.9686 	 -77.4011 	 
C 	 -67.9133 	 17.0999 	 -76.5996 	 
C 	 -68.9101 	 17.2496 	 -75.6112 	 
H 	 -67.0943 	 17.8069 	 -76.5121 	 
C 	 -67.1565 	 15.6296 	 -78.5626 	 
H 	 -67.2012 	 14.5423 	 -78.6227 	 
H 	 -66.2015 	 15.9333 	 -78.2244 	 
C 	 -67.6009 	 16.3523 	 -79.8863 	 
H 	 -66.9433 	 16.0441 	 -80.6724 	 
H 	 -68.5995 	 15.9636 	 -80.0468 	 
C 	 -67.7234 	 17.9127 	 -79.6145 	 
H 	 -68.6692 	 18.0342 	 -79.0321 	 
H 	 -67.011 	 18.3989 	 -78.9276 	 
H 	 -67.811 	 18.4647 	 -80.5586 	 
S 	 -70.3513 	 19.1255 	 -74.3369 	 
C 	 -69.5703 	 20.2479 	 -73.275 	 
C 	 -68.2713 	 19.8915 	 -73.0277 	 
C 	 -67.8688 	 18.6736 	 -73.7119 	 
C 	 -68.8969 	 18.1435 	 -74.5096 	 
H 	 -67.5476 	 20.4528 	 -72.4671 	 
C 	 -66.4113 	 18.0846 	 -73.5944 	 
H 	 -66.4958 	 17.0798 	 -73.9997 	 
H 	 -66.1216 	 18.0273 	 -72.6337 	 
C 	 -65.35 	 18.8641 	 -74.3952 	 
H 	 -65.7747 	 19.9081 	 -74.3314 	 
H 	 -65.4495 	 18.5443 	 -75.4183 	 
C 	 -63.9538 	 18.7269 	 -73.8654 	 
H 	 -63.9006 	 18.9686 	 -72.8455 	 
H 	 -63.3412 	 19.456 	 -74.446 	 
H 	 -63.568 	 17.7858 	 -74.217 	 
H 	 -69.4908 	 14.4337 	 -77.6469 	 
H 	 -70.0268 	 21.1517 	 -72.8458 	 
