34

S 	 -122.543 	 48.2766 	 -32.3413 	 
C 	 -122.574 	 47.0417 	 -31.0956 	 
C 	 -121.737 	 46.0201 	 -31.4018 	 
C 	 -121.201 	 46.1364 	 -32.761 	 
C 	 -121.685 	 47.243 	 -33.4498 	 
H 	 -120.486 	 45.4804 	 -33.2356 	 
C 	 -121.479 	 44.8924 	 -30.4346 	 
H 	 -121.997 	 43.9574 	 -30.7676 	 
H 	 -121.977 	 44.9586 	 -29.4968 	 
C 	 -119.966 	 44.5667 	 -30.1656 	 
H 	 -119.362 	 44.4143 	 -31.0716 	 
H 	 -119.515 	 45.4469 	 -29.6128 	 
C 	 -119.774 	 43.4036 	 -29.1199 	 
H 	 -118.733 	 43.1156 	 -29.0356 	 
H 	 -119.938 	 43.6616 	 -28.1192 	 
H 	 -120.08 	 42.4581 	 -29.5311 	 
S 	 -122.766 	 47.5812 	 -35.9183 	 
C 	 -121.742 	 48.0859 	 -37.2154 	 
C 	 -120.417 	 48.0085 	 -36.9344 	 
C 	 -120.253 	 47.6259 	 -35.5521 	 
C 	 -121.422 	 47.5899 	 -34.8318 	 
H 	 -119.632 	 48.2295 	 -37.6808 	 
C 	 -118.861 	 47.4113 	 -35.0412 	 
H 	 -118.925 	 47.3508 	 -33.9301 	 
H 	 -118.38 	 48.4005 	 -35.3159 	 
C 	 -118.214 	 46.0817 	 -35.4745 	 
H 	 -118.037 	 46.0077 	 -36.5584 	 
H 	 -118.953 	 45.3246 	 -35.2547 	 
C 	 -116.778 	 45.8526 	 -34.6908 	 
H 	 -116.019 	 46.609 	 -34.788 	 
H 	 -116.29 	 44.931 	 -35.0616 	 
H 	 -116.907 	 45.6808 	 -33.6102 	 
H 	 -123.035 	 47.2268 	 -30.118 	 
H 	 -122.135 	 48.2124 	 -38.2163 	 
