34

S 	 -96.1025 	 5.05893 	 -2.3856 	 
C 	 -97.2605 	 6.24363 	 -2.98013 	 
C 	 -96.6208 	 7.32551 	 -3.57763 	 
C 	 -95.2242 	 7.13278 	 -3.60068 	 
C 	 -94.7496 	 5.91691 	 -3.11065 	 
H 	 -94.617 	 7.74002 	 -4.19151 	 
C 	 -97.2024 	 8.5457 	 -4.2287 	 
H 	 -96.6647 	 9.49053 	 -3.95156 	 
H 	 -98.1329 	 8.69985 	 -3.74077 	 
C 	 -97.3448 	 8.65184 	 -5.78711 	 
H 	 -96.3596 	 8.58454 	 -6.27263 	 
H 	 -97.796 	 7.75762 	 -6.20801 	 
C 	 -98.1662 	 9.90173 	 -6.26647 	 
H 	 -99.0604 	 9.99927 	 -5.70651 	 
H 	 -97.5413 	 10.8367 	 -6.2917 	 
H 	 -98.4476 	 9.69531 	 -7.29453 	 
S 	 -93.3448 	 3.58344 	 -3.58446 	 
C 	 -91.6743 	 3.6329 	 -3.98698 	 
C 	 -91.1648 	 4.88646 	 -3.67282 	 
C 	 -92.143 	 5.745 	 -3.0797 	 
C 	 -93.4151 	 5.29063 	 -3.21971 	 
H 	 -90.1496 	 5.12131 	 -3.9753 	 
C 	 -91.6982 	 7.1117 	 -2.63231 	 
H 	 -92.5567 	 7.70306 	 -2.58006 	 
H 	 -91.0178 	 7.68815 	 -3.31898 	 
C 	 -90.9786 	 7.0212 	 -1.29212 	 
H 	 -90.069 	 6.50975 	 -1.32011 	 
H 	 -91.737 	 6.41 	 -0.692226 	 
C 	 -90.7175 	 8.34846 	 -0.600099 	 
H 	 -91.6012 	 9.01882 	 -0.546557 	 
H 	 -89.8235 	 8.85986 	 -1.04717 	 
H 	 -90.4104 	 8.15587 	 0.451655 	 
H 	 -98.2785 	 6.03253 	 -3.11924 	 
H 	 -91.0795 	 2.80446 	 -4.40114 	 
