34

S 	 -52.3661 	 3.51801 	 -24.3182 	 
C 	 -51.9704 	 4.54878 	 -22.9958 	 
C 	 -52.9407 	 4.46617 	 -22.0017 	 
C 	 -53.9628 	 3.55499 	 -22.3439 	 
C 	 -53.7281 	 2.78197 	 -23.4613 	 
H 	 -54.863 	 3.41708 	 -21.7191 	 
C 	 -53.0072 	 5.38423 	 -20.8012 	 
H 	 -52.0934 	 5.22199 	 -20.2337 	 
H 	 -53.7461 	 4.88265 	 -20.193 	 
C 	 -53.4186 	 6.85141 	 -21.0244 	 
H 	 -53.1872 	 7.10641 	 -22.0272 	 
H 	 -54.5153 	 6.9534 	 -20.8094 	 
C 	 -52.7218 	 7.88841 	 -20.1326 	 
H 	 -51.6742 	 7.58732 	 -20.0196 	 
H 	 -52.5828 	 8.78795 	 -20.6288 	 
H 	 -53.2038 	 8.00005 	 -19.1683 	 
S 	 -56.1103 	 2.63615 	 -24.7094 	 
C 	 -56.7976 	 1.0223 	 -24.9513 	 
C 	 -55.8673 	 0.0716101 	 -24.8297 	 
C 	 -54.5702 	 0.508368 	 -24.4387 	 
C 	 -54.663 	 1.86216 	 -24.0859 	 
H 	 -56.0955 	 -0.951789 	 -24.9889 	 
C 	 -53.45 	 -0.422461 	 -24.2048 	 
H 	 -53.8387 	 -1.38425 	 -23.8577 	 
H 	 -52.8255 	 0.0371884 	 -23.4116 	 
C 	 -52.5495 	 -0.60798 	 -25.4497 	 
H 	 -51.5332 	 -0.921569 	 -25.1816 	 
H 	 -52.4142 	 0.306253 	 -26.0319 	 
C 	 -53.2586 	 -1.57675 	 -26.4782 	 
H 	 -54.3043 	 -1.75755 	 -26.1993 	 
H 	 -52.8428 	 -2.62364 	 -26.5158 	 
H 	 -53.3289 	 -1.11288 	 -27.4804 	 
H 	 -51.2333 	 5.37531 	 -23.0037 	 
H 	 -57.7715 	 0.904001 	 -25.3219 	 
