34

S 	 -141.06 	 27.6878 	 -19.7502 	 
C 	 -141.035 	 27.0022 	 -18.0837 	 
C 	 -140.496 	 25.717 	 -18.074 	 
C 	 -140.088 	 25.3429 	 -19.3959 	 
C 	 -140.303 	 26.2451 	 -20.3774 	 
H 	 -139.476 	 24.523 	 -19.6392 	 
C 	 -140.124 	 24.8623 	 -16.9384 	 
H 	 -140.333 	 25.3572 	 -15.971 	 
H 	 -139.11 	 24.6461 	 -17.0109 	 
C 	 -140.833 	 23.4729 	 -16.9286 	 
H 	 -140.968 	 23.0051 	 -15.9 	 
H 	 -141.849 	 23.4648 	 -17.2995 	 
C 	 -140.023 	 22.4077 	 -17.7026 	 
H 	 -139.028 	 22.2667 	 -17.2535 	 
H 	 -140.611 	 21.451 	 -17.6739 	 
H 	 -139.758 	 22.7472 	 -18.7117 	 
S 	 -138.592 	 27.4993 	 -22.1384 	 
C 	 -137.97 	 26.6705 	 -23.5483 	 
C 	 -138.523 	 25.393 	 -23.5483 	 
C 	 -139.364 	 25.1277 	 -22.4802 	 
C 	 -139.624 	 26.1511 	 -21.6512 	 
H 	 -138.126 	 24.7422 	 -24.3918 	 
C 	 -140.068 	 23.7725 	 -22.4741 	 
H 	 -140.372 	 23.5283 	 -23.499 	 
H 	 -141.04 	 23.9149 	 -21.888 	 
C 	 -139.381 	 22.5364 	 -21.8288 	 
H 	 -138.805 	 22.8017 	 -20.9935 	 
H 	 -138.688 	 22.1343 	 -22.5324 	 
C 	 -140.349 	 21.442 	 -21.3574 	 
H 	 -140.879 	 21.794 	 -20.4737 	 
H 	 -139.954 	 20.5278 	 -20.9902 	 
H 	 -141.223 	 21.2751 	 -22.03 	 
H 	 -141.248 	 27.5275 	 -17.1722 	 
H 	 -137.126 	 27.0384 	 -24.1196 	 
