34

S 	 -130.745 	 32.9361 	 -15.1599 	 
C 	 -129.259 	 31.9118 	 -15.2313 	 
C 	 -129.232 	 31.1181 	 -16.3477 	 
C 	 -130.544 	 31.228 	 -17.0193 	 
C 	 -131.443 	 32.0916 	 -16.4885 	 
H 	 -130.819 	 30.6823 	 -17.9345 	 
C 	 -128.195 	 30.1062 	 -16.7201 	 
H 	 -127.274 	 30.1354 	 -16.0572 	 
H 	 -127.895 	 30.4642 	 -17.7158 	 
C 	 -128.651 	 28.6872 	 -16.6499 	 
H 	 -129.204 	 28.4549 	 -17.5443 	 
H 	 -127.737 	 28.1692 	 -16.7313 	 
C 	 -129.374 	 28.1883 	 -15.3431 	 
H 	 -130.296 	 28.751 	 -15.1925 	 
H 	 -129.564 	 27.0949 	 -15.2827 	 
H 	 -128.635 	 28.3304 	 -14.5433 	 
S 	 -133.218 	 33.9472 	 -17.3933 	 
C 	 -134.854 	 33.5133 	 -17.8771 	 
C 	 -134.904 	 32.1078 	 -17.8357 	 
C 	 -133.691 	 31.3823 	 -17.4215 	 
C 	 -132.715 	 32.3133 	 -17.0821 	 
H 	 -135.818 	 31.5994 	 -18.0811 	 
C 	 -133.628 	 29.8282 	 -17.3299 	 
H 	 -133.149 	 29.5274 	 -16.4186 	 
H 	 -132.942 	 29.482 	 -18.1523 	 
C 	 -134.944 	 28.9669 	 -17.5312 	 
H 	 -135.328 	 28.9654 	 -18.562 	 
H 	 -135.696 	 29.4785 	 -16.8923 	 
C 	 -134.732 	 27.4407 	 -17.2758 	 
H 	 -134.357 	 27.3102 	 -16.2399 	 
H 	 -134.115 	 26.8659 	 -17.9429 	 
H 	 -135.714 	 26.9853 	 -17.3858 	 
H 	 -128.445 	 31.9426 	 -14.5113 	 
H 	 -135.632 	 34.1784 	 -18.2634 	 
