34

S 	 -47.5218 	 13.9334 	 -106.067 	 
C 	 -48.48 	 12.5291 	 -106.213 	 
C 	 -49.763 	 12.676 	 -105.644 	 
C 	 -49.8751 	 14.0165 	 -105.098 	 
C 	 -48.733 	 14.7752 	 -105.082 	 
H 	 -50.6146 	 14.3869 	 -104.394 	 
C 	 -50.7957 	 11.6127 	 -105.501 	 
H 	 -51.2239 	 11.768 	 -104.516 	 
H 	 -50.2682 	 10.6866 	 -105.734 	 
C 	 -51.9457 	 11.6085 	 -106.459 	 
H 	 -51.5104 	 11.6862 	 -107.446 	 
H 	 -52.336 	 10.579 	 -106.44 	 
C 	 -53.05 	 12.6855 	 -106.041 	 
H 	 -52.6096 	 13.6013 	 -105.996 	 
H 	 -53.9222 	 12.6775 	 -106.717 	 
H 	 -53.4624 	 12.5591 	 -105.035 	 
S 	 -46.7188 	 16.1134 	 -103.693 	 
C 	 -46.9881 	 17.7543 	 -103.061 	 
C 	 -48.2768 	 18.165 	 -103.45 	 
C 	 -49.0346 	 17.2187 	 -104.221 	 
C 	 -48.4036 	 15.9649 	 -104.304 	 
H 	 -48.7191 	 19.1471 	 -103.124 	 
C 	 -50.3976 	 17.6019 	 -104.876 	 
H 	 -50.9938 	 18.3246 	 -104.256 	 
H 	 -50.8599 	 16.6196 	 -104.762 	 
C 	 -50.458 	 17.9768 	 -106.356 	 
H 	 -49.7872 	 17.2417 	 -106.854 	 
H 	 -50.0469 	 18.929 	 -106.443 	 
C 	 -51.8375 	 17.875 	 -107 	 
H 	 -51.6977 	 18.1403 	 -108.037 	 
H 	 -52.5868 	 18.5981 	 -106.529 	 
H 	 -52.331 	 16.895 	 -107.075 	 
H 	 -48.1165 	 11.6679 	 -106.74 	 
H 	 -46.2457 	 18.257 	 -102.525 	 
