34

S 	 14.8517 	 -9.93595 	 -126.024 	 
C 	 13.5503 	 -10.774 	 -125.189 	 
C 	 13.8363 	 -12.1318 	 -124.993 	 
C 	 15.135 	 -12.4178 	 -125.499 	 
C 	 15.8677 	 -11.3246 	 -125.999 	 
H 	 15.5478 	 -13.4499 	 -125.4 	 
C 	 12.9878 	 -13.1767 	 -124.325 	 
H 	 12.6416 	 -12.9096 	 -123.308 	 
H 	 13.5595 	 -14.1256 	 -124.275 	 
C 	 11.7493 	 -13.6303 	 -125.132 	 
H 	 11.3233 	 -14.4702 	 -124.591 	 
H 	 10.9299 	 -12.9678 	 -125.083 	 
C 	 12.1506 	 -14.0365 	 -126.653 	 
H 	 13.0344 	 -14.5705 	 -126.713 	 
H 	 11.4102 	 -14.6303 	 -127.074 	 
H 	 12.1613 	 -13.1528 	 -127.217 	 
S 	 17.3966 	 -11.4287 	 -128.263 	 
C 	 19.1355 	 -11.3968 	 -128.075 	 
C 	 19.5177 	 -11.2865 	 -126.712 	 
C 	 18.3746 	 -11.1045 	 -125.889 	 
C 	 17.1952 	 -11.3142 	 -126.512 	 
H 	 20.5444 	 -11.2238 	 -126.251 	 
C 	 18.5495 	 -10.7822 	 -124.413 	 
H 	 19.5297 	 -11.108 	 -124.112 	 
H 	 17.9295 	 -11.4862 	 -123.975 	 
C 	 18.4092 	 -9.33997 	 -124.138 	 
H 	 18.5417 	 -9.13529 	 -123.102 	 
H 	 17.3302 	 -9.0713 	 -124.345 	 
C 	 19.2491 	 -8.47206 	 -125.033 	 
H 	 19.0633 	 -8.55355 	 -126.101 	 
H 	 20.238 	 -8.86045 	 -124.947 	 
H 	 19.1066 	 -7.44496 	 -124.782 	 
H 	 12.7205 	 -10.2258 	 -124.843 	 
H 	 19.836 	 -11.2908 	 -128.938 	 
