34

S 	 -53.1741 	 -48.4899 	 -81.9475 	 
C 	 -53.7672 	 -46.9232 	 -82.3189 	 
C 	 -53.0541 	 -45.8892 	 -81.6891 	 
C 	 -51.9578 	 -46.3525 	 -80.9054 	 
C 	 -51.9243 	 -47.7728 	 -80.9455 	 
H 	 -51.3793 	 -45.8333 	 -80.1533 	 
C 	 -53.3584 	 -44.4495 	 -81.5115 	 
H 	 -53.0102 	 -44.3035 	 -80.5027 	 
H 	 -54.4877 	 -44.4193 	 -81.4594 	 
C 	 -52.675 	 -43.4946 	 -82.5388 	 
H 	 -51.613 	 -43.6703 	 -82.5895 	 
H 	 -52.9733 	 -43.7294 	 -83.5971 	 
C 	 -52.865 	 -41.9902 	 -82.3197 	 
H 	 -52.3849 	 -41.7294 	 -81.2825 	 
H 	 -52.3988 	 -41.4621 	 -83.121 	 
H 	 -53.8947 	 -41.7562 	 -82.2541 	 
S 	 -51.7428 	 -49.9898 	 -79.2158 	 
C 	 -50.1141 	 -50.2564 	 -78.5321 	 
C 	 -49.2046 	 -49.354 	 -78.9339 	 
C 	 -49.726 	 -48.3227 	 -79.7748 	 
C 	 -51.0674 	 -48.5576 	 -80.0752 	 
H 	 -48.1613 	 -49.4076 	 -78.6318 	 
C 	 -48.9399 	 -47.128 	 -80.3493 	 
H 	 -49.4188 	 -46.2685 	 -79.9142 	 
H 	 -49.1827 	 -46.9124 	 -81.4021 	 
C 	 -47.4454 	 -46.971 	 -80.1148 	 
H 	 -47.3113 	 -47.0907 	 -78.9654 	 
H 	 -47.0947 	 -45.9215 	 -80.4804 	 
C 	 -46.6702 	 -48.1157 	 -80.8126 	 
H 	 -47.2244 	 -48.7244 	 -81.5319 	 
H 	 -46.3024 	 -48.8002 	 -80.0783 	 
H 	 -45.8013 	 -47.7592 	 -81.2518 	 
H 	 -54.6189 	 -46.6452 	 -83.0062 	 
H 	 -49.883 	 -51.0225 	 -77.8296 	 
