34

S 	 6.02661 	 -27.7018 	 -115.192 	 
C 	 7.37885 	 -27.0169 	 -114.296 	 
C 	 6.97702 	 -25.9258 	 -113.525 	 
C 	 5.66533 	 -25.4991 	 -113.892 	 
C 	 5.02347 	 -26.3864 	 -114.789 	 
H 	 5.24502 	 -24.5846 	 -113.639 	 
C 	 7.78083 	 -25.2258 	 -112.45 	 
H 	 7.80835 	 -24.2178 	 -112.739 	 
H 	 8.79662 	 -25.5587 	 -112.478 	 
C 	 7.47986 	 -25.3724 	 -110.928 	 
H 	 8.00997 	 -26.2728 	 -110.535 	 
H 	 7.73922 	 -24.5176 	 -110.358 	 
C 	 5.95487 	 -25.4456 	 -110.566 	 
H 	 6.02435 	 -25.5042 	 -109.552 	 
H 	 5.36632 	 -24.6497 	 -110.852 	 
H 	 5.57054 	 -26.3541 	 -110.986 	 
S 	 2.41827 	 -26.2751 	 -114.063 	 
C 	 1.18351 	 -26.2813 	 -115.338 	 
C 	 1.71482 	 -26.4891 	 -116.6 	 
C 	 3.13074 	 -26.4658 	 -116.592 	 
C 	 3.66597 	 -26.3158 	 -115.332 	 
H 	 1.04186 	 -26.5087 	 -117.48 	 
C 	 3.84853 	 -26.9574 	 -117.827 	 
H 	 4.90532 	 -26.6314 	 -117.736 	 
H 	 3.31295 	 -26.5434 	 -118.71 	 
C 	 3.86317 	 -28.4685 	 -118.001 	 
H 	 2.79158 	 -28.6901 	 -118.211 	 
H 	 4.0446 	 -29.0676 	 -117.062 	 
C 	 4.82902 	 -28.9571 	 -119.098 	 
H 	 5.87821 	 -28.5976 	 -118.957 	 
H 	 4.54266 	 -28.7831 	 -120.201 	 
H 	 5.11398 	 -30.0246 	 -118.947 	 
H 	 8.40109 	 -27.4264 	 -114.245 	 
H 	 0.187852 	 -26.2366 	 -115.289 	 
