34

S 	 -35.9852 	 -48.6021 	 -73.6691 	 
C 	 -36.7454 	 -47.294 	 -72.8572 	 
C 	 -37.5697 	 -47.7648 	 -71.8592 	 
C 	 -37.7241 	 -49.1662 	 -71.8027 	 
C 	 -36.9114 	 -49.8144 	 -72.6891 	 
H 	 -38.3404 	 -49.6727 	 -71.043 	 
C 	 -38.2114 	 -46.8122 	 -70.7956 	 
H 	 -37.5634 	 -45.9416 	 -70.6408 	 
H 	 -38.3317 	 -47.3641 	 -69.808 	 
C 	 -39.7097 	 -46.3845 	 -71.2128 	 
H 	 -40.1775 	 -47.3157 	 -71.4217 	 
H 	 -40.134 	 -45.9641 	 -70.3462 	 
C 	 -39.8277 	 -45.4507 	 -72.4486 	 
H 	 -40.8594 	 -45.009 	 -72.528 	 
H 	 -39.115 	 -44.6202 	 -72.4763 	 
H 	 -39.5366 	 -46.0714 	 -73.3314 	 
S 	 -36.9343 	 -51.7857 	 -74.4992 	 
C 	 -36.5721 	 -53.3559 	 -73.9896 	 
C 	 -36.4204 	 -53.4855 	 -72.6269 	 
C 	 -36.4775 	 -52.2444 	 -71.9421 	 
C 	 -36.7779 	 -51.2197 	 -72.8487 	 
H 	 -36.1721 	 -54.4336 	 -72.2869 	 
C 	 -36.3645 	 -52.12 	 -70.4232 	 
H 	 -37.1185 	 -52.7467 	 -69.9457 	 
H 	 -36.7038 	 -51.1154 	 -70.2722 	 
C 	 -35.0463 	 -52.3008 	 -69.7809 	 
H 	 -35.0131 	 -51.7929 	 -68.8414 	 
H 	 -34.3319 	 -51.8863 	 -70.4779 	 
C 	 -34.635 	 -53.7795 	 -69.5742 	 
H 	 -33.7004 	 -54.0025 	 -69.0035 	 
H 	 -34.3829 	 -54.2133 	 -70.5172 	 
H 	 -35.3477 	 -54.452 	 -69.0635 	 
H 	 -36.5164 	 -46.3038 	 -73.0674 	 
H 	 -36.4206 	 -54.2052 	 -74.683 	 
