34

S 	 48.7593 	 -34.8508 	 -121.294 	 
C 	 49.6405 	 -34.1098 	 -122.613 	 
C 	 49.1551 	 -32.8585 	 -122.867 	 
C 	 47.9054 	 -32.5679 	 -122.16 	 
C 	 47.6517 	 -33.47 	 -121.163 	 
H 	 47.2548 	 -31.733 	 -122.21 	 
C 	 49.8848 	 -31.8704 	 -123.727 	 
H 	 50.9706 	 -32.0047 	 -123.63 	 
H 	 49.6601 	 -30.8261 	 -123.327 	 
C 	 49.6749 	 -32.0727 	 -125.205 	 
H 	 50.4258 	 -31.549 	 -125.753 	 
H 	 49.7357 	 -33.1363 	 -125.486 	 
C 	 48.2561 	 -31.6679 	 -125.634 	 
H 	 48.086 	 -32.003 	 -126.63 	 
H 	 47.5295 	 -32.0409 	 -124.91 	 
H 	 47.9383 	 -30.6057 	 -125.604 	 
S 	 47.0744 	 -32.3721 	 -118.737 	 
C 	 45.3912 	 -32.3748 	 -118.17 	 
C 	 44.584 	 -33.1504 	 -118.944 	 
C 	 45.2645 	 -33.6471 	 -120.142 	 
C 	 46.6003 	 -33.2427 	 -120.209 	 
H 	 43.5293 	 -33.3302 	 -118.709 	 
C 	 44.5228 	 -34.4499 	 -121.252 	 
H 	 44.0941 	 -35.2414 	 -120.666 	 
H 	 45.2886 	 -34.8585 	 -121.909 	 
C 	 43.5183 	 -33.5945 	 -122.045 	 
H 	 42.5616 	 -33.5633 	 -121.553 	 
H 	 43.2477 	 -34.1272 	 -122.943 	 
C 	 43.9764 	 -32.173 	 -122.362 	 
H 	 43.1593 	 -31.6854 	 -122.884 	 
H 	 44.9632 	 -32.1021 	 -122.871 	 
H 	 43.9822 	 -31.5691 	 -121.448 	 
H 	 50.608 	 -34.4532 	 -123.022 	 
H 	 45.1189 	 -32.0957 	 -117.182 	 
