34

S 	 -54.0446 	 -52.397 	 -73.362 	 
C 	 -52.3594 	 -52.6534 	 -72.9334 	 
C 	 -51.7709 	 -53.7339 	 -73.5248 	 
C 	 -52.7438 	 -54.446 	 -74.3214 	 
C 	 -53.9897 	 -53.8211 	 -74.4242 	 
H 	 -52.5282 	 -55.3747 	 -74.8898 	 
C 	 -50.4134 	 -54.3518 	 -73.296 	 
H 	 -49.8241 	 -53.5125 	 -72.8338 	 
H 	 -49.8978 	 -54.8106 	 -74.2636 	 
C 	 -50.2085 	 -55.3052 	 -72.1289 	 
H 	 -49.179 	 -55.6005 	 -72.1286 	 
H 	 -50.4834 	 -54.7771 	 -71.2556 	 
C 	 -50.9642 	 -56.6173 	 -72.1484 	 
H 	 -50.7137 	 -57.267 	 -71.3673 	 
H 	 -51.9605 	 -56.2828 	 -71.873 	 
H 	 -50.9335 	 -57.137 	 -73.1046 	 
S 	 -56.6102 	 -54.6103 	 -74.3021 	 
C 	 -57.5711 	 -54.539 	 -75.7492 	 
C 	 -56.7757 	 -54.4533 	 -76.9104 	 
C 	 -55.388 	 -54.2528 	 -76.6615 	 
C 	 -55.1316 	 -54.1971 	 -75.2736 	 
H 	 -57.3082 	 -54.3662 	 -77.8877 	 
C 	 -54.3327 	 -53.7962 	 -77.711 	 
H 	 -53.3579 	 -53.861 	 -77.1964 	 
H 	 -54.296 	 -52.6808 	 -77.9053 	 
C 	 -54.3979 	 -54.4282 	 -79.0934 	 
H 	 -55.2821 	 -54.1925 	 -79.6658 	 
H 	 -54.3386 	 -55.5368 	 -79.0482 	 
C 	 -53.2624 	 -54.0196 	 -80.0281 	 
H 	 -52.2706 	 -54.2122 	 -79.5527 	 
H 	 -53.3885 	 -52.9819 	 -80.2839 	 
H 	 -53.4023 	 -54.6189 	 -80.9206 	 
H 	 -51.8043 	 -52.1392 	 -72.143 	 
H 	 -58.605 	 -54.9052 	 -75.7448 	 
