34

S 	 46.2504 	 -17.987 	 -111.565 	 
C 	 44.5654 	 -17.6947 	 -112.121 	 
C 	 43.6348 	 -18.1778 	 -111.255 	 
C 	 44.1716 	 -18.7644 	 -110.065 	 
C 	 45.5497 	 -18.5624 	 -110.042 	 
H 	 43.5442 	 -19.3213 	 -109.366 	 
C 	 42.1501 	 -18.2066 	 -111.534 	 
H 	 41.8286 	 -19.213 	 -111.368 	 
H 	 41.8123 	 -18.0756 	 -112.573 	 
C 	 41.3436 	 -17.3499 	 -110.599 	 
H 	 41.495 	 -17.5657 	 -109.499 	 
H 	 41.7908 	 -16.3709 	 -110.67 	 
C 	 39.9859 	 -17.3516 	 -111.058 	 
H 	 39.2449 	 -16.8016 	 -110.433 	 
H 	 39.891 	 -16.8445 	 -112.083 	 
H 	 39.5421 	 -18.3218 	 -111.051 	 
S 	 47.7343 	 -20.0018 	 -109.454 	 
C 	 48.2411 	 -20.3132 	 -107.809 	 
C 	 47.4734 	 -19.6967 	 -106.919 	 
C 	 46.3966 	 -18.9331 	 -107.537 	 
C 	 46.4614 	 -18.9044 	 -108.95 	 
H 	 47.7194 	 -19.8689 	 -105.882 	 
C 	 45.2982 	 -18.253 	 -106.686 	 
H 	 44.7553 	 -17.5988 	 -107.372 	 
H 	 45.8122 	 -17.653 	 -105.887 	 
C 	 44.3317 	 -19.2282 	 -105.919 	 
H 	 44.8989 	 -19.8132 	 -105.212 	 
H 	 43.8365 	 -19.8368 	 -106.695 	 
C 	 43.1882 	 -18.5047 	 -105.215 	 
H 	 42.4127 	 -19.2332 	 -104.812 	 
H 	 42.6026 	 -17.8412 	 -105.773 	 
H 	 43.6374 	 -17.8434 	 -104.47 	 
H 	 44.3839 	 -17.1041 	 -113.021 	 
H 	 49.133 	 -20.9022 	 -107.486 	 
