34

S 	 -63.8634 	 9.20825 	 -75.3216 	 
C 	 -64.2849 	 7.60791 	 -74.8368 	 
C 	 -64.8896 	 6.81381 	 -75.8444 	 
C 	 -64.9091 	 7.57522 	 -77.0863 	 
C 	 -64.4119 	 8.85946 	 -76.9651 	 
H 	 -65.2868 	 7.23682 	 -78.0239 	 
C 	 -65.4107 	 5.41937 	 -75.6424 	 
H 	 -66.3082 	 5.24701 	 -76.136 	 
H 	 -65.7709 	 5.29501 	 -74.6184 	 
C 	 -64.5409 	 4.28515 	 -76.1613 	 
H 	 -64.9786 	 3.31904 	 -76.0203 	 
H 	 -64.2481 	 4.41362 	 -77.2317 	 
C 	 -63.2301 	 4.16954 	 -75.4175 	 
H 	 -63.1758 	 4.6418 	 -74.3998 	 
H 	 -62.9317 	 3.13058 	 -75.3107 	 
H 	 -62.5081 	 4.68921 	 -75.9831 	 
S 	 -64.2455 	 11.5797 	 -77.4562 	 
C 	 -64.2973 	 12.0793 	 -79.1398 	 
C 	 -64.0528 	 11.1072 	 -80.0359 	 
C 	 -64.0849 	 9.79556 	 -79.392 	 
C 	 -64.26 	 9.89402 	 -77.9725 	 
H 	 -64.1095 	 11.3122 	 -81.0923 	 
C 	 -64.0269 	 8.56352 	 -80.1436 	 
H 	 -63.8695 	 7.66319 	 -79.4902 	 
H 	 -63.1997 	 8.50597 	 -80.8766 	 
C 	 -65.3507 	 8.23334 	 -80.8018 	 
H 	 -65.6185 	 8.9717 	 -81.6374 	 
H 	 -66.19 	 8.28662 	 -80.0398 	 
C 	 -65.4212 	 6.80318 	 -81.3416 	 
H 	 -65.4463 	 6.00604 	 -80.5929 	 
H 	 -64.5872 	 6.56748 	 -82.0466 	 
H 	 -66.3243 	 6.62757 	 -81.8523 	 
H 	 -64.1477 	 7.2723 	 -73.8526 	 
H 	 -64.3425 	 13.1062 	 -79.4867 	 
