34

S 	 39.2781 	 -17.3549 	 -112.37 	 
C 	 38.9209 	 -18.2762 	 -113.822 	 
C 	 38.3638 	 -19.5429 	 -113.487 	 
C 	 38.2899 	 -19.7611 	 -112.08 	 
C 	 38.7803 	 -18.6928 	 -111.343 	 
H 	 37.9142 	 -20.6178 	 -111.641 	 
C 	 37.8555 	 -20.6421 	 -114.445 	 
H 	 37.6504 	 -20.1805 	 -115.407 	 
H 	 36.8702 	 -20.9958 	 -114.132 	 
C 	 38.9238 	 -21.7437 	 -114.663 	 
H 	 39.5826 	 -21.5242 	 -115.455 	 
H 	 39.4728 	 -21.9069 	 -113.781 	 
C 	 38.0751 	 -22.9941 	 -115.058 	 
H 	 37.2797 	 -22.6423 	 -115.751 	 
H 	 38.5684 	 -23.852 	 -115.481 	 
H 	 37.501 	 -23.386 	 -114.248 	 
S 	 37.3812 	 -17.5586 	 -109.211 	 
C 	 37.8581 	 -17.9145 	 -107.568 	 
C 	 38.9004 	 -18.8644 	 -107.573 	 
C 	 39.2894 	 -19.2822 	 -108.853 	 
C 	 38.6327 	 -18.6216 	 -109.894 	 
H 	 39.4309 	 -19.1496 	 -106.686 	 
C 	 40.5163 	 -20.1938 	 -109.007 	 
H 	 41.1372 	 -20.0212 	 -108.148 	 
H 	 41.1203 	 -19.7507 	 -109.792 	 
C 	 40.2787 	 -21.6865 	 -109.298 	 
H 	 41.356 	 -22.1195 	 -109.339 	 
H 	 39.8352 	 -21.8927 	 -110.319 	 
C 	 39.573 	 -22.3676 	 -108.133 	 
H 	 38.5096 	 -22.1765 	 -108.119 	 
H 	 39.9388 	 -22.0625 	 -107.177 	 
H 	 39.7188 	 -23.4662 	 -108.213 	 
H 	 39.0215 	 -17.9838 	 -114.843 	 
H 	 37.4272 	 -17.4839 	 -106.7 	 
