34

S 	 -50.6357 	 -50.9846 	 -77.7702 	 
C 	 -50.169 	 -51.5613 	 -79.3326 	 
C 	 -50.7668 	 -50.7536 	 -80.3526 	 
C 	 -51.7338 	 -49.7978 	 -79.8138 	 
C 	 -51.7333 	 -49.7982 	 -78.4352 	 
H 	 -52.4295 	 -49.1633 	 -80.4201 	 
C 	 -50.6181 	 -50.9296 	 -81.8884 	 
H 	 -51.3735 	 -51.6234 	 -82.2784 	 
H 	 -49.6022 	 -51.3295 	 -82.1011 	 
C 	 -50.8298 	 -49.7367 	 -82.8903 	 
H 	 -50.9548 	 -50.0853 	 -83.9259 	 
H 	 -51.6855 	 -49.296 	 -82.6059 	 
C 	 -49.6177 	 -48.7775 	 -82.8599 	 
H 	 -49.3129 	 -48.5549 	 -81.8309 	 
H 	 -48.7269 	 -49.2603 	 -83.3333 	 
H 	 -49.8554 	 -47.8307 	 -83.3889 	 
S 	 -51.4546 	 -48.4898 	 -76.0297 	 
C 	 -52.5691 	 -47.3514 	 -75.5642 	 
C 	 -53.6267 	 -47.2183 	 -76.4528 	 
C 	 -53.5361 	 -48.1316 	 -77.595 	 
C 	 -52.3191 	 -48.8077 	 -77.5641 	 
H 	 -54.4961 	 -46.6276 	 -76.2543 	 
C 	 -54.6413 	 -48.4527 	 -78.5651 	 
H 	 -55.4427 	 -48.7451 	 -77.855 	 
H 	 -54.421 	 -49.3438 	 -79.0891 	 
C 	 -55.1049 	 -47.3979 	 -79.5493 	 
H 	 -54.2102 	 -46.9644 	 -80.0056 	 
H 	 -55.5703 	 -46.5264 	 -79.1258 	 
C 	 -56.0562 	 -47.9775 	 -80.6306 	 
H 	 -55.6789 	 -48.8236 	 -81.2827 	 
H 	 -56.3627 	 -47.1886 	 -81.3709 	 
H 	 -56.9608 	 -48.4064 	 -80.2409 	 
H 	 -49.4753 	 -52.4251 	 -79.4423 	 
H 	 -52.59 	 -46.803 	 -74.6153 	 
