34

S 	 -75.7308 	 -3.57108 	 1.39017 	 
C 	 -74.404 	 -3.11011 	 2.40748 	 
C 	 -73.4276 	 -4.04936 	 2.40884 	 
C 	 -73.9303 	 -5.23217 	 1.75181 	 
C 	 -75.1928 	 -5.18403 	 1.2733 	 
H 	 -73.3159 	 -6.14528 	 1.71032 	 
C 	 -72.0215 	 -3.87541 	 3.03123 	 
H 	 -71.6851 	 -2.85341 	 2.77169 	 
H 	 -71.1998 	 -4.51448 	 2.68526 	 
C 	 -72.0403 	 -3.84763 	 4.59168 	 
H 	 -71.1357 	 -3.57429 	 5.00215 	 
H 	 -72.8003 	 -3.1581 	 4.98335 	 
C 	 -72.426 	 -5.28682 	 5.0199 	 
H 	 -72.2514 	 -5.51017 	 6.10081 	 
H 	 -73.4505 	 -5.47366 	 4.8432 	 
H 	 -71.9226 	 -6.07958 	 4.51971 	 
S 	 -75.5133 	 -6.73761 	 -1.02397 	 
C 	 -76.793 	 -7.92124 	 -1.02349 	 
C 	 -77.3179 	 -8.15609 	 0.242461 	 
C 	 -76.8028 	 -7.21759 	 1.23312 	 
C 	 -75.8572 	 -6.34593 	 0.657814 	 
H 	 -78.0907 	 -8.90786 	 0.417543 	 
C 	 -77.4067 	 -7.22458 	 2.59318 	 
H 	 -78.3721 	 -7.76581 	 2.58533 	 
H 	 -77.6102 	 -6.15469 	 2.88898 	 
C 	 -76.4118 	 -7.68461 	 3.66211 	 
H 	 -75.472 	 -7.23014 	 3.40755 	 
H 	 -76.2384 	 -8.7935 	 3.50099 	 
C 	 -76.8214 	 -7.24314 	 5.05768 	 
H 	 -77.6226 	 -7.81689 	 5.44241 	 
H 	 -77.0223 	 -6.18138 	 5.02204 	 
H 	 -75.9787 	 -7.47111 	 5.73315 	 
H 	 -74.2258 	 -2.15447 	 2.88862 	 
H 	 -77.0944 	 -8.37367 	 -1.91048 	 
