34

S 	 20.0819 	 -6.05005 	 -115.858 	 
C 	 21.6976 	 -6.34267 	 -115.391 	 
C 	 22.6139 	 -6.18119 	 -116.436 	 
C 	 21.9328 	 -5.638 	 -117.567 	 
C 	 20.5558 	 -5.58253 	 -117.44 	 
H 	 22.4903 	 -5.26233 	 -118.432 	 
C 	 24.1325 	 -6.62466 	 -116.428 	 
H 	 24.7695 	 -5.78794 	 -116.241 	 
H 	 24.4451 	 -6.83155 	 -117.469 	 
C 	 24.5772 	 -7.85812 	 -115.561 	 
H 	 24.4123 	 -7.58743 	 -114.48 	 
H 	 24.0524 	 -8.81175 	 -115.768 	 
C 	 26.0815 	 -8.17132 	 -115.686 	 
H 	 26.7555 	 -7.5853 	 -115.112 	 
H 	 26.1651 	 -9.18674 	 -115.258 	 
H 	 26.2454 	 -8.14495 	 -116.74 	 
S 	 19.7723 	 -5.61537 	 -120.139 	 
C 	 18.5216 	 -4.60942 	 -120.734 	 
C 	 17.8306 	 -3.98894 	 -119.702 	 
C 	 18.4245 	 -4.28189 	 -118.384 	 
C 	 19.5742 	 -5.10016 	 -118.466 	 
H 	 17.0872 	 -3.319 	 -119.978 	 
C 	 17.8193 	 -3.57914 	 -117.108 	 
H 	 17.8679 	 -4.07462 	 -116.16 	 
H 	 16.7856 	 -3.69317 	 -117.197 	 
C 	 18.1695 	 -2.07498 	 -117.044 	 
H 	 17.9606 	 -1.62513 	 -118 	 
H 	 19.2562 	 -1.82471 	 -116.885 	 
C 	 17.3614 	 -1.27956 	 -115.979 	 
H 	 17.6623 	 -1.74639 	 -115.05 	 
H 	 16.267 	 -1.34757 	 -116.146 	 
H 	 17.6632 	 -0.318905 	 -116.024 	 
H 	 21.9497 	 -6.82741 	 -114.435 	 
H 	 18.2499 	 -4.37572 	 -121.719 	 
