34

S 	 -95.5838 	 41.7151 	 -84.4433 	 
C 	 -95.8718 	 40.0107 	 -83.9305 	 
C 	 -96.414 	 39.2271 	 -84.9242 	 
C 	 -96.6217 	 39.9247 	 -86.1412 	 
C 	 -96.1807 	 41.2573 	 -86.1112 	 
H 	 -97.2694 	 39.6958 	 -86.9362 	 
C 	 -96.933 	 37.8233 	 -84.746 	 
H 	 -96.4094 	 37.2603 	 -84.0863 	 
H 	 -96.7798 	 37.3279 	 -85.7155 	 
C 	 -98.4099 	 37.815 	 -84.3318 	 
H 	 -98.4535 	 38.1474 	 -83.2871 	 
H 	 -99.0628 	 38.5583 	 -84.9049 	 
C 	 -99.0225 	 36.4496 	 -84.5616 	 
H 	 -98.6682 	 35.7705 	 -83.7842 	 
H 	 -100.145 	 36.4608 	 -84.4672 	 
H 	 -98.7077 	 36.0527 	 -85.5335 	 
S 	 -97.3585 	 43.7299 	 -86.4531 	 
C 	 -97.3262 	 44.5514 	 -88.0096 	 
C 	 -96.7765 	 43.7282 	 -88.9844 	 
C 	 -96.2708 	 42.4827 	 -88.4463 	 
C 	 -96.4348 	 42.3409 	 -87.0882 	 
H 	 -96.7003 	 44.1491 	 -89.9105 	 
C 	 -95.5196 	 41.6195 	 -89.3851 	 
H 	 -94.6829 	 41.1362 	 -88.8824 	 
H 	 -95.0433 	 42.2362 	 -90.1466 	 
C 	 -96.2805 	 40.5947 	 -90.1522 	 
H 	 -96.7264 	 39.9618 	 -89.4037 	 
H 	 -95.5919 	 39.9636 	 -90.747 	 
C 	 -97.3954 	 41.0615 	 -91.0276 	 
H 	 -97.6986 	 40.1924 	 -91.6658 	 
H 	 -97.1218 	 41.8371 	 -91.7455 	 
H 	 -98.2361 	 41.3128 	 -90.4456 	 
H 	 -95.7213 	 39.5928 	 -82.9454 	 
H 	 -97.7402 	 45.598 	 -88.0899 	 
