34

S 	 -106.976 	 55.7613 	 -97.7809 	 
C 	 -106.643 	 54.7173 	 -96.5042 	 
C 	 -105.869 	 53.6747 	 -96.9486 	 
C 	 -105.655 	 53.6507 	 -98.3735 	 
C 	 -106.158 	 54.7637 	 -98.9994 	 
H 	 -105.063 	 52.8484 	 -98.9208 	 
C 	 -105.242 	 52.698 	 -96.0736 	 
H 	 -105.178 	 51.7749 	 -96.5995 	 
H 	 -105.897 	 52.5495 	 -95.2361 	 
C 	 -103.787 	 53.0855 	 -95.6745 	 
H 	 -103.288 	 52.3173 	 -95.0669 	 
H 	 -103.285 	 53.1956 	 -96.6156 	 
C 	 -103.681 	 54.3908 	 -94.8569 	 
H 	 -104.148 	 54.2551 	 -93.8353 	 
H 	 -102.612 	 54.7113 	 -94.934 	 
H 	 -104.206 	 55.2147 	 -95.2955 	 
S 	 -106.133 	 56.7062 	 -100.953 	 
C 	 -106.537 	 56.2615 	 -102.569 	 
C 	 -106.835 	 54.9247 	 -102.722 	 
C 	 -106.725 	 54.2161 	 -101.475 	 
C 	 -106.211 	 55.0296 	 -100.452 	 
H 	 -107.045 	 54.6401 	 -103.754 	 
C 	 -106.962 	 52.7395 	 -101.439 	 
H 	 -106.185 	 52.3878 	 -100.736 	 
H 	 -106.732 	 52.2488 	 -102.414 	 
C 	 -108.373 	 52.3083 	 -101.008 	 
H 	 -109.07 	 52.5799 	 -101.892 	 
H 	 -108.704 	 52.8972 	 -100.152 	 
C 	 -108.419 	 50.8186 	 -100.732 	 
H 	 -107.744 	 50.4949 	 -99.974 	 
H 	 -108.166 	 50.3467 	 -101.705 	 
H 	 -109.489 	 50.4634 	 -100.556 	 
H 	 -106.979 	 54.8476 	 -95.5152 	 
H 	 -106.8 	 57.0687 	 -103.23 	 
