34

S 	 -39.9592 	 14.8533 	 20.5508 	 
C 	 -41.3297 	 15.2732 	 19.5502 	 
C 	 -42.4717 	 14.6138 	 19.9712 	 
C 	 -42.2558 	 13.7566 	 21.1252 	 
C 	 -40.9124 	 13.7248 	 21.4911 	 
H 	 -42.9579 	 13.104 	 21.5363 	 
C 	 -43.8057 	 14.8275 	 19.2634 	 
H 	 -43.8766 	 15.8304 	 18.8857 	 
H 	 -44.5666 	 14.7077 	 20.0546 	 
C 	 -44.1478 	 13.8701 	 18.1488 	 
H 	 -44.238 	 12.9496 	 18.6672 	 
H 	 -45.114 	 14.0326 	 17.762 	 
C 	 -43.1511 	 13.7269 	 16.9546 	 
H 	 -42.2227 	 13.4477 	 17.2536 	 
H 	 -43.485 	 12.9633 	 16.2785 	 
H 	 -42.9798 	 14.5779 	 16.3505 	 
S 	 -39.1329 	 13.8506 	 23.5651 	 
C 	 -38.6369 	 12.4265 	 24.3555 	 
C 	 -39.3653 	 11.3664 	 23.9642 	 
C 	 -40.4169 	 11.6895 	 23.0178 	 
C 	 -40.2719 	 12.9986 	 22.5375 	 
H 	 -39.2866 	 10.4496 	 24.4328 	 
C 	 -41.2096 	 10.5953 	 22.3257 	 
H 	 -40.7202 	 10.5095 	 21.374 	 
H 	 -42.2058 	 10.9845 	 22.2079 	 
C 	 -41.3145 	 9.2394 	 23.1318 	 
H 	 -40.2858 	 8.90481 	 23.3399 	 
H 	 -41.5735 	 8.34809 	 22.5528 	 
C 	 -42.1891 	 9.2533 	 24.4281 	 
H 	 -42.2497 	 8.32208 	 24.9739 	 
H 	 -43.1604 	 9.52025 	 24.1523 	 
H 	 -41.8759 	 9.99848 	 25.0938 	 
H 	 -41.2207 	 15.8555 	 18.6625 	 
H 	 -37.9879 	 12.5282 	 25.246 	 
