34

S 	 -93.598 	 -30.7171 	 -72.5568 	 
C 	 -93.6119 	 -32.0858 	 -73.5657 	 
C 	 -92.4966 	 -32.245 	 -74.3308 	 
C 	 -91.5546 	 -31.2021 	 -73.979 	 
C 	 -92.0606 	 -30.2221 	 -73.1025 	 
H 	 -90.4755 	 -31.0685 	 -74.226 	 
C 	 -92.2009 	 -33.3002 	 -75.4023 	 
H 	 -92.7372 	 -34.1595 	 -75.1029 	 
H 	 -91.2377 	 -33.7111 	 -75.3775 	 
C 	 -92.6663 	 -32.7737 	 -76.7437 	 
H 	 -92.6307 	 -33.708 	 -77.3329 	 
H 	 -93.7285 	 -32.4825 	 -76.7041 	 
C 	 -91.6516 	 -31.6391 	 -77.2486 	 
H 	 -90.6789 	 -31.932 	 -77.3446 	 
H 	 -91.9522 	 -31.2699 	 -78.2039 	 
H 	 -91.8215 	 -30.7428 	 -76.5263 	 
S 	 -91.4448 	 -28.5133 	 -71.0052 	 
C 	 -90.8505 	 -26.934 	 -71.34 	 
C 	 -90.6761 	 -26.6995 	 -72.6976 	 
C 	 -91.0438 	 -27.858 	 -73.4568 	 
C 	 -91.5047 	 -28.9352 	 -72.7101 	 
H 	 -90.2312 	 -25.7647 	 -73.0294 	 
C 	 -91.0604 	 -27.7711 	 -74.9979 	 
H 	 -91.2685 	 -28.7508 	 -75.3612 	 
H 	 -89.9936 	 -27.8186 	 -75.3451 	 
C 	 -91.9874 	 -26.7796 	 -75.5845 	 
H 	 -91.8258 	 -25.7428 	 -75.1249 	 
H 	 -92.9376 	 -27.088 	 -75.259 	 
C 	 -91.7789 	 -26.8221 	 -77.0879 	 
H 	 -92.0022 	 -27.8057 	 -77.4439 	 
H 	 -90.7343 	 -26.7234 	 -77.3405 	 
H 	 -92.3768 	 -26.0225 	 -77.5656 	 
H 	 -94.4718 	 -32.7949 	 -73.6039 	 
H 	 -90.6905 	 -26.2451 	 -70.5729 	 
