34

S 	 -52.3526 	 11.3633 	 20.1539 	 
C 	 -52.9958 	 9.89319 	 19.2734 	 
C 	 -53.1964 	 8.84836 	 20.1939 	 
C 	 -53.1847 	 9.33412 	 21.512 	 
C 	 -52.7895 	 10.6522 	 21.7006 	 
H 	 -53.5692 	 8.77686 	 22.3524 	 
C 	 -53.7122 	 7.46957 	 19.825 	 
H 	 -53.8277 	 7.48516 	 18.6795 	 
H 	 -54.7111 	 7.33697 	 20.285 	 
C 	 -52.7667 	 6.30675 	 20.1801 	 
H 	 -51.8231 	 6.41445 	 19.647 	 
H 	 -52.3793 	 6.25832 	 21.2041 	 
C 	 -53.2798 	 4.97929 	 19.5462 	 
H 	 -52.6571 	 4.08594 	 19.6902 	 
H 	 -54.2566 	 4.69601 	 20.0562 	 
H 	 -53.5204 	 5.11279 	 18.5106 	 
S 	 -53.2089 	 13.1967 	 22.7144 	 
C 	 -53.355 	 13.4486 	 24.488 	 
C 	 -53.0172 	 12.292 	 25.1416 	 
C 	 -52.689 	 11.2008 	 24.2669 	 
C 	 -52.8034 	 11.4875 	 22.886 	 
H 	 -52.9372 	 12.243 	 26.2669 	 
C 	 -52.1065 	 9.95916 	 24.9307 	 
H 	 -52.6596 	 9.03091 	 24.6839 	 
H 	 -52.1272 	 10.0567 	 26.0047 	 
C 	 -50.6265 	 9.71432 	 24.6256 	 
H 	 -50.0486 	 10.6309 	 24.8361 	 
H 	 -50.3779 	 9.61235 	 23.5493 	 
C 	 -50.0333 	 8.43068 	 25.3638 	 
H 	 -50.3946 	 7.49023 	 24.8917 	 
H 	 -50.1692 	 8.27545 	 26.3839 	 
H 	 -48.9639 	 8.45452 	 25.1404 	 
H 	 -53.0498 	 9.74611 	 18.2428 	 
H 	 -53.6398 	 14.3502 	 24.9521 	 
