34

S 	 -133.648 	 31.496 	 -20.9756 	 
C 	 -132.424 	 30.183 	 -20.805 	 
C 	 -132.774 	 29.2763 	 -19.8282 	 
C 	 -134.022 	 29.6849 	 -19.2054 	 
C 	 -134.636 	 30.8028 	 -19.6449 	 
H 	 -134.505 	 29.1246 	 -18.3924 	 
C 	 -131.84 	 28.0831 	 -19.5433 	 
H 	 -131.901 	 27.2898 	 -20.3029 	 
H 	 -132.25 	 27.642 	 -18.6639 	 
C 	 -130.359 	 28.3134 	 -19.2674 	 
H 	 -129.895 	 28.7301 	 -20.2268 	 
H 	 -130.351 	 29.0604 	 -18.4916 	 
C 	 -129.559 	 27.0554 	 -18.9233 	 
H 	 -129.096 	 26.5774 	 -19.7662 	 
H 	 -128.566 	 27.3138 	 -18.4767 	 
H 	 -130.162 	 26.3936 	 -18.2752 	 
S 	 -136.967 	 31.8192 	 -20.6626 	 
C 	 -138.031 	 32.6315 	 -19.5903 	 
C 	 -137.878 	 32.2019 	 -18.3049 	 
C 	 -136.658 	 31.4856 	 -18.0955 	 
C 	 -135.982 	 31.3019 	 -19.2867 	 
H 	 -138.607 	 32.5198 	 -17.5699 	 
C 	 -136.244 	 31.0668 	 -16.7314 	 
H 	 -135.226 	 30.6912 	 -16.6593 	 
H 	 -136.967 	 30.3054 	 -16.3869 	 
C 	 -136.336 	 32.2355 	 -15.7278 	 
H 	 -137.318 	 32.5377 	 -15.6373 	 
H 	 -135.806 	 33.1924 	 -15.9716 	 
C 	 -135.897 	 31.754 	 -14.3937 	 
H 	 -134.763 	 31.605 	 -14.4332 	 
H 	 -136.251 	 30.8201 	 -14.0387 	 
H 	 -135.98 	 32.631 	 -13.7277 	 
H 	 -131.61 	 30.0555 	 -21.4584 	 
H 	 -138.819 	 33.234 	 -19.9915 	 
