34

S 	 -106.426 	 38.1582 	 -14.3536 	 
C 	 -106.536 	 38.7618 	 -16.0056 	 
C 	 -105.532 	 38.1341 	 -16.8117 	 
C 	 -104.616 	 37.3373 	 -16.016 	 
C 	 -105.035 	 37.1195 	 -14.7057 	 
H 	 -103.688 	 36.8939 	 -16.3312 	 
C 	 -105.317 	 38.3163 	 -18.2674 	 
H 	 -106.29 	 38.2003 	 -18.7318 	 
H 	 -104.783 	 37.4106 	 -18.5212 	 
C 	 -104.475 	 39.5811 	 -18.7547 	 
H 	 -105.024 	 40.4459 	 -18.5899 	 
H 	 -103.529 	 39.6839 	 -18.1584 	 
C 	 -104.358 	 39.6825 	 -20.2294 	 
H 	 -103.92 	 40.6541 	 -20.4599 	 
H 	 -103.842 	 38.8737 	 -20.672 	 
H 	 -105.338 	 39.7337 	 -20.7371 	 
S 	 -104.4 	 37.2322 	 -11.9877 	 
C 	 -103.377 	 36.0174 	 -11.3056 	 
C 	 -102.955 	 35.1243 	 -12.2005 	 
C 	 -103.497 	 35.4044 	 -13.4975 	 
C 	 -104.271 	 36.5447 	 -13.5761 	 
H 	 -102.337 	 34.29 	 -11.8386 	 
C 	 -103.292 	 34.3468 	 -14.5121 	 
H 	 -103.815 	 34.6217 	 -15.4461 	 
H 	 -103.66 	 33.3963 	 -14.1689 	 
C 	 -101.815 	 34.1608 	 -14.8659 	 
H 	 -101.283 	 33.7668 	 -14.0966 	 
H 	 -101.431 	 35.19 	 -15.095 	 
C 	 -101.824 	 33.2045 	 -16.1412 	 
H 	 -102.242 	 33.7593 	 -16.9307 	 
H 	 -102.236 	 32.2401 	 -15.8193 	 
H 	 -100.813 	 32.9326 	 -16.4768 	 
H 	 -107.447 	 39.2915 	 -16.4016 	 
H 	 -103.211 	 35.9415 	 -10.2802 	 
