34

S 	 -120.497 	 62.2039 	 -34.2955 	 
C 	 -120.737 	 62.3008 	 -36.1027 	 
C 	 -119.659 	 61.7859 	 -36.7772 	 
C 	 -118.807 	 61.0859 	 -35.8673 	 
C 	 -119.199 	 61.0262 	 -34.5372 	 
H 	 -117.908 	 60.5498 	 -36.1087 	 
C 	 -119.391 	 62.0063 	 -38.302 	 
H 	 -118.623 	 62.7543 	 -38.2531 	 
H 	 -120.339 	 62.269 	 -38.7424 	 
C 	 -118.849 	 60.7675 	 -39.047 	 
H 	 -118.717 	 61.1049 	 -40.0551 	 
H 	 -117.927 	 60.3921 	 -38.757 	 
C 	 -119.915 	 59.6986 	 -39.2209 	 
H 	 -120.819 	 60.1162 	 -39.6034 	 
H 	 -119.617 	 58.9139 	 -39.8707 	 
H 	 -120.073 	 59.1848 	 -38.2389 	 
S 	 -117.445 	 61.4162 	 -32.5354 	 
C 	 -116.934 	 60.1 	 -31.5251 	 
C 	 -117.472 	 58.9253 	 -32.0154 	 
C 	 -118.333 	 59.045 	 -33.1026 	 
C 	 -118.505 	 60.3707 	 -33.4205 	 
H 	 -117.163 	 58.0263 	 -31.5679 	 
C 	 -119.1 	 57.9192 	 -33.8555 	 
H 	 -118.393 	 57.4736 	 -34.632 	 
H 	 -119.966 	 58.186 	 -34.477 	 
C 	 -119.699 	 56.8584 	 -32.9614 	 
H 	 -120.617 	 57.2599 	 -32.4231 	 
H 	 -118.972 	 56.6859 	 -32.207 	 
C 	 -119.978 	 55.5338 	 -33.6177 	 
H 	 -120.889 	 55.7262 	 -34.3065 	 
H 	 -120.274 	 54.7536 	 -32.8828 	 
H 	 -119.136 	 55.147 	 -34.2523 	 
H 	 -121.36 	 63.0456 	 -36.5923 	 
H 	 -116.398 	 60.1606 	 -30.6369 	 
