34

S 	 -97.8237 	 15.193 	 -119.306 	 
C 	 -96.2347 	 15.7008 	 -118.933 	 
C 	 -95.7076 	 15.1583 	 -117.732 	 
C 	 -96.5767 	 14.1614 	 -117.191 	 
C 	 -97.7717 	 14.1017 	 -117.881 	 
H 	 -96.4243 	 13.5313 	 -116.295 	 
C 	 -94.2579 	 15.2992 	 -117.28 	 
H 	 -93.5959 	 14.7601 	 -117.936 	 
H 	 -94.2088 	 14.8157 	 -116.327 	 
C 	 -93.757 	 16.7736 	 -117.226 	 
H 	 -92.6814 	 16.8645 	 -116.873 	 
H 	 -93.7758 	 17.1398 	 -118.215 	 
C 	 -94.6206 	 17.6983 	 -116.341 	 
H 	 -95.6392 	 17.5897 	 -116.74 	 
H 	 -94.5401 	 17.4497 	 -115.238 	 
H 	 -94.2609 	 18.6689 	 -116.481 	 
S 	 -100.364 	 14.0182 	 -117.247 	 
C 	 -101.23 	 12.5625 	 -116.926 	 
C 	 -100.359 	 11.483 	 -116.983 	 
C 	 -98.9745 	 11.8546 	 -117.282 	 
C 	 -98.8856 	 13.201 	 -117.525 	 
H 	 -100.842 	 10.5044 	 -116.847 	 
C 	 -97.8265 	 10.9181 	 -117.399 	 
H 	 -98.153 	 9.97679 	 -116.922 	 
H 	 -96.9696 	 11.3084 	 -116.832 	 
C 	 -97.2882 	 10.6299 	 -118.773 	 
H 	 -96.5957 	 9.8097 	 -118.591 	 
H 	 -96.76 	 11.5292 	 -119.122 	 
C 	 -98.4011 	 10.1946 	 -119.693 	 
H 	 -99.1343 	 10.9986 	 -119.797 	 
H 	 -98.8766 	 9.33309 	 -119.36 	 
H 	 -98.148 	 9.96165 	 -120.675 	 
H 	 -95.7648 	 16.5831 	 -119.442 	 
H 	 -102.262 	 12.3793 	 -116.674 	 
