34

S 	 -104.308 	 22.6426 	 -110.478 	 
C 	 -104.692 	 21.2786 	 -111.556 	 
C 	 -105.786 	 21.542 	 -112.377 	 
C 	 -106.309 	 22.9153 	 -112.149 	 
C 	 -105.557 	 23.6402 	 -111.212 	 
H 	 -107.216 	 23.187 	 -112.566 	 
C 	 -106.319 	 20.5579 	 -113.395 	 
H 	 -107.396 	 20.688 	 -113.463 	 
H 	 -106.01 	 19.4977 	 -113.203 	 
C 	 -105.515 	 20.8166 	 -114.735 	 
H 	 -106.017 	 20.3608 	 -115.541 	 
H 	 -105.561 	 21.7796 	 -115.161 	 
C 	 -104.046 	 20.3259 	 -114.728 	 
H 	 -103.577 	 20.2813 	 -115.671 	 
H 	 -103.472 	 20.936 	 -114.086 	 
H 	 -103.977 	 19.3654 	 -114.199 	 
S 	 -105.483 	 25.128 	 -108.871 	 
C 	 -106.149 	 26.6963 	 -108.801 	 
C 	 -106.521 	 27.056 	 -110.082 	 
C 	 -106.306 	 26.1374 	 -111.123 	 
C 	 -105.868 	 24.9426 	 -110.591 	 
H 	 -106.79 	 28.0416 	 -110.285 	 
C 	 -106.724 	 26.4714 	 -112.549 	 
H 	 -107.365 	 27.3854 	 -112.573 	 
H 	 -107.256 	 25.5294 	 -112.912 	 
C 	 -105.513 	 26.7181 	 -113.444 	 
H 	 -104.886 	 25.8619 	 -113.432 	 
H 	 -104.863 	 27.4829 	 -113.088 	 
C 	 -105.869 	 27.1317 	 -114.956 	 
H 	 -105.09 	 26.8577 	 -115.608 	 
H 	 -105.947 	 28.2222 	 -114.907 	 
H 	 -106.765 	 26.712 	 -115.311 	 
H 	 -104.312 	 20.2631 	 -111.382 	 
H 	 -106.324 	 27.2636 	 -107.972 	 
