34

S 	 -33.1472 	 -34.7897 	 -90.7724 	 
C 	 -31.7029 	 -33.9891 	 -91.3448 	 
C 	 -30.8568 	 -34.7746 	 -91.9975 	 
C 	 -31.4532 	 -36.0447 	 -92.2418 	 
C 	 -32.6853 	 -36.2212 	 -91.6501 	 
H 	 -31.0352 	 -36.8718 	 -92.8211 	 
C 	 -29.5198 	 -34.386 	 -92.5875 	 
H 	 -29.0729 	 -35.1576 	 -93.1942 	 
H 	 -28.7772 	 -34.1835 	 -91.8278 	 
C 	 -29.4906 	 -33.1613 	 -93.4578 	 
H 	 -29.6009 	 -32.1916 	 -92.9027 	 
H 	 -28.5001 	 -33.0026 	 -93.8502 	 
C 	 -30.4984 	 -33.3591 	 -94.4912 	 
H 	 -30.1932 	 -34.2378 	 -95.0788 	 
H 	 -31.4934 	 -33.5213 	 -94.0387 	 
H 	 -30.5866 	 -32.5228 	 -95.1708 	 
S 	 -32.7341 	 -38.7994 	 -91.1411 	 
C 	 -34.0559 	 -39.769 	 -91.6013 	 
C 	 -35.0762 	 -39.0401 	 -92.1832 	 
C 	 -34.783 	 -37.6518 	 -92.3524 	 
C 	 -33.5368 	 -37.3885 	 -91.7615 	 
H 	 -35.9789 	 -39.4303 	 -92.6565 	 
C 	 -35.5083 	 -36.765 	 -93.2791 	 
H 	 -35.5084 	 -35.7776 	 -92.8971 	 
H 	 -36.5903 	 -36.9411 	 -93.3128 	 
C 	 -35.1214 	 -36.7098 	 -94.7952 	 
H 	 -35.3121 	 -37.7191 	 -95.2245 	 
H 	 -34.0692 	 -36.6112 	 -94.9524 	 
C 	 -35.8561 	 -35.717 	 -95.6147 	 
H 	 -36.257 	 -34.9507 	 -95.0288 	 
H 	 -36.7913 	 -36.1013 	 -96.1715 	 
H 	 -35.2208 	 -35.3189 	 -96.4891 	 
H 	 -31.5029 	 -32.9606 	 -91.1034 	 
H 	 -34.1666 	 -40.8206 	 -91.5532 	 
