34

S 	 -101.917 	 -5.5408 	 -110.162 	 
C 	 -103.358 	 -6.58226 	 -110.306 	 
C 	 -104.321 	 -6.08686 	 -109.479 	 
C 	 -104 	 -4.87263 	 -108.816 	 
C 	 -102.721 	 -4.42403 	 -109.023 	 
H 	 -104.6 	 -4.38985 	 -108.118 	 
C 	 -105.715 	 -6.59601 	 -109.372 	 
H 	 -106.028 	 -7.04028 	 -110.287 	 
H 	 -106.494 	 -5.77463 	 -109.204 	 
C 	 -105.944 	 -7.67164 	 -108.253 	 
H 	 -105.786 	 -7.09252 	 -107.266 	 
H 	 -107.011 	 -8.05556 	 -108.366 	 
C 	 -104.998 	 -8.91724 	 -108.328 	 
H 	 -104.691 	 -9.30817 	 -109.255 	 
H 	 -104.044 	 -8.74961 	 -107.796 	 
H 	 -105.358 	 -9.8024 	 -107.781 	 
S 	 -101.435 	 -2.05118 	 -109.754 	 
C 	 -100.845 	 -1.007 	 -108.574 	 
C 	 -101.073 	 -1.48637 	 -107.313 	 
C 	 -101.828 	 -2.71785 	 -107.269 	 
C 	 -102.021 	 -3.22029 	 -108.558 	 
H 	 -100.773 	 -1.011 	 -106.37 	 
C 	 -101.863 	 -3.6077 	 -106 	 
H 	 -100.988 	 -4.2198 	 -105.865 	 
H 	 -102.695 	 -4.33878 	 -106.192 	 
C 	 -102.232 	 -3.02488 	 -104.681 	 
H 	 -103.282 	 -2.88838 	 -104.525 	 
H 	 -101.866 	 -1.98548 	 -104.611 	 
C 	 -101.651 	 -3.87243 	 -103.479 	 
H 	 -101.947 	 -4.86932 	 -103.361 	 
H 	 -101.832 	 -3.43519 	 -102.46 	 
H 	 -100.524 	 -4.0036 	 -103.565 	 
H 	 -103.475 	 -7.2564 	 -111.068 	 
H 	 -100.324 	 -0.124041 	 -108.713 	 
