34

S 	 -92.9232 	 -24.7552 	 -67.3287 	 
C 	 -94.5088 	 -24.8733 	 -67.9097 	 
C 	 -95.3349 	 -25.5723 	 -67.0785 	 
C 	 -94.7088 	 -26.047 	 -65.8674 	 
C 	 -93.3996 	 -25.6198 	 -65.8836 	 
H 	 -95.1549 	 -26.5598 	 -65.0849 	 
C 	 -96.768 	 -25.8672 	 -67.475 	 
H 	 -97.0381 	 -26.9713 	 -67.4555 	 
H 	 -96.8138 	 -25.5178 	 -68.5085 	 
C 	 -97.7805 	 -24.8857 	 -66.7913 	 
H 	 -97.5911 	 -23.8417 	 -67.1885 	 
H 	 -98.7118 	 -25.2308 	 -67.1954 	 
C 	 -97.9208 	 -24.8636 	 -65.323 	 
H 	 -98.8293 	 -24.2762 	 -65.0529 	 
H 	 -98.0016 	 -25.8467 	 -64.8483 	 
H 	 -97.1114 	 -24.4399 	 -64.8162 	 
S 	 -90.9924 	 -26.9465 	 -65.364 	 
C 	 -90.3158 	 -26.7879 	 -63.8674 	 
C 	 -91.0357 	 -25.9188 	 -63.041 	 
C 	 -92.241 	 -25.452 	 -63.5948 	 
C 	 -92.3284 	 -25.8514 	 -64.9123 	 
H 	 -90.599 	 -25.842 	 -62.1241 	 
C 	 -93.1605 	 -24.666 	 -62.6717 	 
H 	 -93.0344 	 -25.0509 	 -61.6549 	 
H 	 -94.1395 	 -24.8594 	 -62.9784 	 
C 	 -92.9172 	 -23.1563 	 -62.6974 	 
H 	 -93.4665 	 -22.9671 	 -63.5973 	 
H 	 -91.8951 	 -22.8491 	 -62.8905 	 
C 	 -93.6098 	 -22.3357 	 -61.5577 	 
H 	 -93.3832 	 -21.2501 	 -61.5001 	 
H 	 -93.2794 	 -22.7221 	 -60.5847 	 
H 	 -94.728 	 -22.3723 	 -61.7113 	 
H 	 -94.8028 	 -24.307 	 -68.7645 	 
H 	 -89.3303 	 -27.238 	 -63.5318 	 
