34

S 	 -65.3652 	 7.53244 	 -69.6455 	 
C 	 -66.3879 	 8.89158 	 -70.0848 	 
C 	 -67.6855 	 8.59542 	 -70.1692 	 
C 	 -67.9375 	 7.21221 	 -69.7906 	 
C 	 -66.7433 	 6.43691 	 -69.5714 	 
H 	 -68.8698 	 6.68078 	 -69.6277 	 
C 	 -68.7618 	 9.4804 	 -70.6773 	 
H 	 -69.6999 	 8.98198 	 -70.5354 	 
H 	 -68.5279 	 9.64172 	 -71.6895 	 
C 	 -68.8249 	 10.8056 	 -70.005 	 
H 	 -67.8303 	 11.1662 	 -69.957 	 
H 	 -69.4172 	 11.4956 	 -70.5602 	 
C 	 -69.3509 	 10.6128 	 -68.52 	 
H 	 -69.1709 	 11.4123 	 -67.78 	 
H 	 -70.4242 	 10.4958 	 -68.5044 	 
H 	 -68.8282 	 9.73797 	 -68.1113 	 
S 	 -67.6207 	 4.50106 	 -67.9591 	 
C 	 -67.0561 	 2.8355 	 -68.171 	 
C 	 -66.1695 	 2.72234 	 -69.2047 	 
C 	 -65.934 	 3.99697 	 -69.8345 	 
C 	 -66.6605 	 5.04736 	 -69.2248 	 
H 	 -65.7866 	 1.7252 	 -69.5211 	 
C 	 -64.9447 	 4.0396 	 -70.9764 	 
H 	 -64.1254 	 3.37877 	 -70.8338 	 
H 	 -64.5015 	 5.0865 	 -71.0729 	 
C 	 -65.5835 	 3.61605 	 -72.2941 	 
H 	 -66.3113 	 4.40568 	 -72.5624 	 
H 	 -65.9989 	 2.63519 	 -72.1859 	 
C 	 -64.6095 	 3.5287 	 -73.437 	 
H 	 -65.2189 	 3.35987 	 -74.4105 	 
H 	 -63.7933 	 2.74921 	 -73.3599 	 
H 	 -64.0638 	 4.47851 	 -73.5683 	 
H 	 -66.1331 	 9.8313 	 -70.5243 	 
H 	 -67.4179 	 2.06511 	 -67.5354 	 
