34

S 	 -64.8347 	 18.5617 	 -116.576 	 
C 	 -64.5854 	 16.9692 	 -115.769 	 
C 	 -63.5047 	 17.055 	 -114.894 	 
C 	 -62.7602 	 18.2881 	 -115.043 	 
C 	 -63.4757 	 19.2493 	 -115.697 	 
H 	 -61.7261 	 18.5055 	 -114.585 	 
C 	 -62.9684 	 15.8666 	 -114.045 	 
H 	 -62.0594 	 15.5719 	 -114.486 	 
H 	 -63.5442 	 14.936 	 -114.321 	 
C 	 -62.9563 	 16.0959 	 -112.498 	 
H 	 -62.3177 	 16.9465 	 -112.34 	 
H 	 -63.9666 	 16.4595 	 -112.183 	 
C 	 -62.3445 	 14.9189 	 -111.657 	 
H 	 -63.0632 	 14.0143 	 -111.53 	 
H 	 -61.5783 	 14.5038 	 -112.245 	 
H 	 -62.0082 	 15.1894 	 -110.694 	 
S 	 -63.6712 	 21.4632 	 -117.305 	 
C 	 -62.8173 	 22.8997 	 -116.992 	 
C 	 -61.9624 	 22.7636 	 -115.907 	 
C 	 -62.0957 	 21.4936 	 -115.267 	 
C 	 -63.0213 	 20.6628 	 -115.924 	 
H 	 -61.2895 	 23.604 	 -115.658 	 
C 	 -61.1803 	 21.0988 	 -114.111 	 
H 	 -60.3715 	 21.7478 	 -113.963 	 
H 	 -60.5755 	 20.2537 	 -114.444 	 
C 	 -61.8381 	 20.9339 	 -112.725 	 
H 	 -62.5113 	 20.0712 	 -112.779 	 
H 	 -62.4704 	 21.8209 	 -112.512 	 
C 	 -60.8652 	 20.7326 	 -111.535 	 
H 	 -60.1924 	 19.8954 	 -111.627 	 
H 	 -61.5237 	 20.5563 	 -110.632 	 
H 	 -60.2424 	 21.5258 	 -111.294 	 
H 	 -65.2829 	 16.1803 	 -115.918 	 
H 	 -62.7216 	 23.8419 	 -117.539 	 
