34

S 	 -139.878 	 26.2008 	 -19.7631 	 
C 	 -139.746 	 25.2564 	 -18.2957 	 
C 	 -139.146 	 24.0237 	 -18.5998 	 
C 	 -138.85 	 23.8494 	 -20.0042 	 
C 	 -139.232 	 24.936 	 -20.7605 	 
H 	 -138.604 	 22.9196 	 -20.506 	 
C 	 -138.936 	 22.8829 	 -17.6791 	 
H 	 -138.357 	 23.2382 	 -16.7545 	 
H 	 -138.538 	 21.9731 	 -18.1439 	 
C 	 -140.224 	 22.249 	 -17.0435 	 
H 	 -140.072 	 21.5374 	 -16.3327 	 
H 	 -140.828 	 23.0526 	 -16.526 	 
C 	 -141.061 	 21.6411 	 -18.1706 	 
H 	 -140.541 	 20.732 	 -18.4639 	 
H 	 -142.085 	 21.372 	 -17.8594 	 
H 	 -141.135 	 22.3257 	 -19.0878 	 
S 	 -137.982 	 26.2785 	 -22.8481 	 
C 	 -138.126 	 25.7369 	 -24.4867 	 
C 	 -139.198 	 24.8803 	 -24.5473 	 
C 	 -139.719 	 24.478 	 -23.2321 	 
C 	 -139.081 	 25.1271 	 -22.1804 	 
H 	 -139.56 	 24.5084 	 -25.578 	 
C 	 -140.75 	 23.3413 	 -23.2128 	 
H 	 -141.484 	 23.4627 	 -24.0056 	 
H 	 -141.289 	 23.3756 	 -22.2973 	 
C 	 -140.182 	 21.9119 	 -23.3359 	 
H 	 -139.483 	 21.9152 	 -22.4811 	 
H 	 -139.47 	 21.8002 	 -24.1062 	 
C 	 -141.244 	 20.8012 	 -23.5786 	 
H 	 -141.605 	 20.5759 	 -22.5403 	 
H 	 -140.826 	 19.9296 	 -24.1165 	 
H 	 -142.04 	 21.1267 	 -24.182 	 
H 	 -140.057 	 25.5508 	 -17.3238 	 
H 	 -137.759 	 26.23 	 -25.4029 	 
