34

S 	 -103.343 	 -0.286502 	 -108.438 	 
C 	 -103.311 	 -0.796263 	 -110.125 	 
C 	 -103.64 	 -2.15648 	 -110.183 	 
C 	 -104.074 	 -2.69701 	 -108.953 	 
C 	 -103.994 	 -1.82132 	 -107.918 	 
H 	 -104.434 	 -3.71606 	 -108.901 	 
C 	 -103.681 	 -2.9424 	 -111.531 	 
H 	 -102.834 	 -2.58187 	 -112.123 	 
H 	 -104.538 	 -2.52684 	 -112.013 	 
C 	 -103.856 	 -4.47361 	 -111.4 	 
H 	 -104.682 	 -4.67745 	 -110.797 	 
H 	 -104.162 	 -4.84791 	 -112.391 	 
C 	 -102.575 	 -5.20016 	 -111.035 	 
H 	 -102.541 	 -6.28064 	 -110.813 	 
H 	 -101.947 	 -5.11462 	 -111.962 	 
H 	 -102.093 	 -4.73502 	 -110.204 	 
S 	 -104.922 	 -0.783353 	 -105.518 	 
C 	 -105.328 	 -1.79987 	 -104.204 	 
C 	 -104.778 	 -3.06304 	 -104.383 	 
C 	 -104.146 	 -3.22303 	 -105.66 	 
C 	 -104.245 	 -2.07726 	 -106.493 	 
H 	 -104.904 	 -3.85384 	 -103.704 	 
C 	 -103.572 	 -4.60045 	 -105.994 	 
H 	 -104.201 	 -5.01441 	 -106.832 	 
H 	 -103.703 	 -5.26035 	 -105.108 	 
C 	 -102.092 	 -4.71224 	 -106.383 	 
H 	 -101.582 	 -4.24814 	 -105.598 	 
H 	 -101.871 	 -4.14198 	 -107.241 	 
C 	 -101.642 	 -6.18759 	 -106.589 	 
H 	 -100.705 	 -6.3013 	 -107.173 	 
H 	 -102.349 	 -6.68235 	 -107.263 	 
H 	 -101.674 	 -6.7467 	 -105.663 	 
H 	 -102.9 	 -0.240275 	 -110.974 	 
H 	 -105.874 	 -1.42827 	 -103.293 	 
