34

S 	 -46.8879 	 8.88471 	 -17.3386 	 
C 	 -46.767 	 7.51341 	 -16.2241 	 
C 	 -47.3186 	 7.82379 	 -14.9936 	 
C 	 -47.3176 	 9.23841 	 -14.8283 	 
C 	 -47.0878 	 9.98978 	 -15.9933 	 
H 	 -47.4147 	 9.73304 	 -13.8589 	 
C 	 -47.504 	 6.84529 	 -13.8324 	 
H 	 -48.5396 	 6.59148 	 -13.6891 	 
H 	 -47.4318 	 7.45727 	 -12.9269 	 
C 	 -46.4898 	 5.70212 	 -13.6435 	 
H 	 -46.713 	 4.86472 	 -14.3011 	 
H 	 -45.5005 	 5.97102 	 -14.047 	 
C 	 -46.4201 	 5.26934 	 -12.183 	 
H 	 -45.7348 	 4.45146 	 -12.0111 	 
H 	 -46.0995 	 6.04296 	 -11.519 	 
H 	 -47.3911 	 4.93948 	 -11.8234 	 
S 	 -46.7444 	 12.0443 	 -17.8044 	 
C 	 -47.2548 	 13.6316 	 -17.4704 	 
C 	 -47.9285 	 13.6143 	 -16.2651 	 
C 	 -47.8751 	 12.3807 	 -15.5774 	 
C 	 -47.2327 	 11.3839 	 -16.2516 	 
H 	 -48.3444 	 14.521 	 -15.8881 	 
C 	 -48.6136 	 12.3236 	 -14.2657 	 
H 	 -49.2386 	 11.4111 	 -14.1707 	 
H 	 -49.4301 	 13.0509 	 -14.1487 	 
C 	 -47.6887 	 12.3656 	 -13.0264 	 
H 	 -47.1756 	 13.3579 	 -12.9209 	 
H 	 -46.8631 	 11.7752 	 -13.0797 	 
C 	 -48.4458 	 12.0633 	 -11.6827 	 
H 	 -47.7808 	 11.93 	 -10.8377 	 
H 	 -49.0806 	 11.1381 	 -11.7232 	 
H 	 -49.0736 	 12.9383 	 -11.4389 	 
H 	 -46.4379 	 6.52714 	 -16.5091 	 
H 	 -47.2549 	 14.4741 	 -18.129 	 
