34

S 	 -89.4258 	 -24.9316 	 -60.2825 	 
C 	 -89.4315 	 -23.3638 	 -59.4484 	 
C 	 -89.648 	 -23.535 	 -58.0656 	 
C 	 -89.7973 	 -24.9209 	 -57.7132 	 
C 	 -89.8136 	 -25.7625 	 -58.8045 	 
H 	 -89.9326 	 -25.2374 	 -56.6923 	 
C 	 -89.5506 	 -22.3611 	 -57.0569 	 
H 	 -88.8945 	 -21.5589 	 -57.4907 	 
H 	 -88.9068 	 -22.8464 	 -56.3187 	 
C 	 -90.8043 	 -21.9272 	 -56.2966 	 
H 	 -90.4569 	 -21.0518 	 -55.6275 	 
H 	 -91.6509 	 -21.6377 	 -57.0182 	 
C 	 -91.3507 	 -23.0429 	 -55.3655 	 
H 	 -91.7883 	 -23.8837 	 -55.9004 	 
H 	 -90.5501 	 -23.4127 	 -54.6785 	 
H 	 -92.1062 	 -22.5983 	 -54.7412 	 
S 	 -88.9038 	 -28.2488 	 -59.5379 	 
C 	 -89.7309 	 -29.6859 	 -59.0432 	 
C 	 -90.7041 	 -29.3525 	 -58.1686 	 
C 	 -91.0181 	 -27.9504 	 -58.0598 	 
C 	 -90.0084 	 -27.2084 	 -58.7168 	 
H 	 -91.342 	 -30.1851 	 -57.8194 	 
C 	 -92.2238 	 -27.4616 	 -57.2954 	 
H 	 -91.854 	 -26.7095 	 -56.6027 	 
H 	 -92.5886 	 -28.1801 	 -56.6565 	 
C 	 -93.4232 	 -26.9924 	 -58.0382 	 
H 	 -94.268 	 -27.0137 	 -57.3062 	 
H 	 -93.6201 	 -27.7074 	 -58.7908 	 
C 	 -93.3397 	 -25.5156 	 -58.4852 	 
H 	 -92.6693 	 -25.4 	 -59.2703 	 
H 	 -93.1044 	 -24.826 	 -57.6558 	 
H 	 -94.2227 	 -25.1193 	 -58.9395 	 
H 	 -89.3412 	 -22.4238 	 -59.979 	 
H 	 -89.5033 	 -30.7288 	 -59.3836 	 
