34

S 	 -131.759 	 12.1084 	 -7.03136 	 
C 	 -130.146 	 12.039 	 -6.38367 	 
C 	 -129.378 	 11.2119 	 -7.14379 	 
C 	 -130.062 	 10.7125 	 -8.30416 	 
C 	 -131.413 	 11.1084 	 -8.40275 	 
H 	 -129.688 	 10.1318 	 -9.0806 	 
C 	 -127.837 	 10.9757 	 -6.95212 	 
H 	 -127.81 	 10.2681 	 -6.09704 	 
H 	 -127.366 	 11.9069 	 -6.55183 	 
C 	 -127.128 	 10.303 	 -8.1854 	 
H 	 -126.1 	 10.1175 	 -7.94376 	 
H 	 -127.506 	 9.2999 	 -8.30308 	 
C 	 -127.108 	 11.1977 	 -9.44919 	 
H 	 -128.122 	 11.3222 	 -9.90501 	 
H 	 -126.651 	 12.1312 	 -9.18005 	 
H 	 -126.491 	 10.6448 	 -10.2016 	 
S 	 -133.14 	 12.4598 	 -9.92999 	 
C 	 -133.937 	 11.7639 	 -11.3102 	 
C 	 -133.506 	 10.437 	 -11.513 	 
C 	 -132.561 	 10.0368 	 -10.5524 	 
C 	 -132.328 	 10.9786 	 -9.54768 	 
H 	 -133.888 	 9.79729 	 -12.2771 	 
C 	 -131.847 	 8.6897 	 -10.6995 	 
H 	 -132.493 	 7.90798 	 -10.8939 	 
H 	 -131.396 	 8.52079 	 -9.73653 	 
C 	 -130.696 	 8.61559 	 -11.7701 	 
H 	 -129.966 	 9.40479 	 -11.6811 	 
H 	 -131.127 	 8.78008 	 -12.6931 	 
C 	 -130.027 	 7.24232 	 -11.8255 	 
H 	 -129.3 	 7.01837 	 -11.1109 	 
H 	 -129.463 	 7.24085 	 -12.8262 	 
H 	 -130.66 	 6.38081 	 -11.7962 	 
H 	 -129.845 	 12.5759 	 -5.4658 	 
H 	 -134.579 	 12.4053 	 -11.8814 	 
