34

S 	 -32.4291 	 -48.9272 	 -76.9198 	 
C 	 -30.7945 	 -49.602 	 -76.9499 	 
C 	 -29.9768 	 -48.9772 	 -76.0216 	 
C 	 -30.6137 	 -47.9216 	 -75.3931 	 
C 	 -31.8833 	 -47.6172 	 -75.8644 	 
H 	 -30.0663 	 -47.2974 	 -74.6327 	 
C 	 -28.4688 	 -49.2586 	 -75.8625 	 
H 	 -28.4647 	 -50.302 	 -75.6132 	 
H 	 -27.9698 	 -48.7886 	 -74.9925 	 
C 	 -27.6033 	 -48.9396 	 -77.093 	 
H 	 -26.5735 	 -49.2616 	 -76.8455 	 
H 	 -28.0051 	 -49.5139 	 -77.8543 	 
C 	 -27.534 	 -47.5173 	 -77.4908 	 
H 	 -28.4722 	 -47.1622 	 -77.8569 	 
H 	 -27.1139 	 -46.9894 	 -76.6282 	 
H 	 -26.7976 	 -47.4287 	 -78.3125 	 
S 	 -34.4891 	 -46.9442 	 -75.3043 	 
C 	 -34.8547 	 -45.2954 	 -74.8817 	 
C 	 -33.7003 	 -44.5111 	 -74.8939 	 
C 	 -32.5343 	 -45.2262 	 -75.3013 	 
C 	 -32.7909 	 -46.5128 	 -75.5451 	 
H 	 -33.7032 	 -43.4633 	 -74.5725 	 
C 	 -31.2443 	 -44.4895 	 -75.2919 	 
H 	 -30.6867 	 -44.9336 	 -74.4672 	 
H 	 -31.4721 	 -43.4431 	 -75.0391 	 
C 	 -30.3835 	 -44.4532 	 -76.5979 	 
H 	 -30.7062 	 -43.5774 	 -77.1371 	 
H 	 -30.6712 	 -45.332 	 -77.1449 	 
C 	 -28.9771 	 -44.3108 	 -76.2563 	 
H 	 -28.3328 	 -44.2564 	 -77.1737 	 
H 	 -28.7389 	 -45.2279 	 -75.6933 	 
H 	 -28.7187 	 -43.5095 	 -75.614 	 
H 	 -30.3624 	 -50.3696 	 -77.5912 	 
H 	 -35.8552 	 -44.864 	 -74.7741 	 
