34

S 	 -40.1643 	 -10.2615 	 10.2056 	 
C 	 -41.1111 	 -10.6792 	 8.80879 	 
C 	 -40.5772 	 -10.1403 	 7.62148 	 
C 	 -39.4168 	 -9.36583 	 7.89866 	 
C 	 -39.0791 	 -9.28952 	 9.23992 	 
H 	 -38.7912 	 -8.97901 	 7.16808 	 
C 	 -41.0312 	 -10.2737 	 6.19185 	 
H 	 -41.6381 	 -11.1802 	 6.11167 	 
H 	 -40.172 	 -10.451 	 5.55932 	 
C 	 -41.8904 	 -9.08865 	 5.73832 	 
H 	 -42.2904 	 -9.30131 	 4.70781 	 
H 	 -42.8105 	 -9.04821 	 6.40524 	 
C 	 -41.2337 	 -7.78736 	 5.72179 	 
H 	 -41.1449 	 -7.47611 	 6.73995 	 
H 	 -40.1417 	 -7.84353 	 5.38959 	 
H 	 -41.7575 	 -7.02779 	 5.15243 	 
S 	 -37.2351 	 -9.75466 	 11.2103 	 
C 	 -35.8566 	 -8.76523 	 11.4254 	 
C 	 -35.7949 	 -7.7673 	 10.5195 	 
C 	 -36.8958 	 -7.75916 	 9.54783 	 
C 	 -37.8105 	 -8.7792 	 9.84485 	 
H 	 -34.9151 	 -7.09565 	 10.593 	 
C 	 -36.8211 	 -6.89403 	 8.36837 	 
H 	 -37.3892 	 -7.32655 	 7.47871 	 
H 	 -35.8039 	 -7.09431 	 8.07423 	 
C 	 -37.0405 	 -5.36776 	 8.59345 	 
H 	 -36.2429 	 -5.01578 	 9.25359 	 
H 	 -37.9888 	 -5.33585 	 9.11068 	 
C 	 -36.885 	 -4.35591 	 7.37162 	 
H 	 -36.308 	 -3.47667 	 7.62176 	 
H 	 -37.8492 	 -4.06743 	 7.05292 	 
H 	 -36.3635 	 -4.88166 	 6.5735 	 
H 	 -42.0466 	 -11.1925 	 8.80622 	 
H 	 -35.1435 	 -8.90017 	 12.2424 	 
