34

S 	 -60.6008 	 -56.5469 	 -81.1319 	 
C 	 -59.8955 	 -56.7816 	 -79.6266 	 
C 	 -59.0559 	 -57.8549 	 -79.6058 	 
C 	 -59.2581 	 -58.558 	 -80.8634 	 
C 	 -60.1093 	 -58.0419 	 -81.8044 	 
H 	 -58.7413 	 -59.4577 	 -81.1324 	 
C 	 -58.1974 	 -58.3244 	 -78.4466 	 
H 	 -58.0382 	 -59.3943 	 -78.5996 	 
H 	 -58.8664 	 -58.3239 	 -77.5817 	 
C 	 -56.7565 	 -57.7017 	 -78.207 	 
H 	 -56.3141 	 -57.4267 	 -79.1857 	 
H 	 -56.9 	 -56.722 	 -77.7283 	 
C 	 -55.8181 	 -58.7161 	 -77.4617 	 
H 	 -56.1717 	 -58.8524 	 -76.4121 	 
H 	 -55.9068 	 -59.6138 	 -77.9841 	 
H 	 -54.7577 	 -58.395 	 -77.4727 	 
S 	 -60.6909 	 -60.177 	 -83.4243 	 
C 	 -61.0944 	 -59.9774 	 -85.0943 	 
C 	 -60.7929 	 -58.7228 	 -85.4677 	 
C 	 -60.4545 	 -57.8227 	 -84.349 	 
C 	 -60.2923 	 -58.5269 	 -83.1728 	 
H 	 -60.9614 	 -58.4299 	 -86.4967 	 
C 	 -60.2895 	 -56.308 	 -84.4932 	 
H 	 -59.455 	 -56.0782 	 -85.0979 	 
H 	 -59.9451 	 -55.7952 	 -83.6091 	 
C 	 -61.5347 	 -55.6105 	 -85.0971 	 
H 	 -62.3994 	 -55.7969 	 -84.4208 	 
H 	 -61.7238 	 -56.06 	 -86.0953 	 
C 	 -61.3741 	 -54.1219 	 -85.1303 	 
H 	 -62.2714 	 -53.6252 	 -85.5764 	 
H 	 -60.5695 	 -53.8422 	 -85.7184 	 
H 	 -61.2927 	 -53.6244 	 -84.1792 	 
H 	 -60.0454 	 -56.1346 	 -78.7949 	 
H 	 -61.4541 	 -60.7219 	 -85.7695 	 
