34

S 	 -118.173 	 16.1111 	 -114.238 	 
C 	 -116.938 	 16.7597 	 -115.282 	 
C 	 -116.528 	 15.8056 	 -116.145 	 
C 	 -117.221 	 14.5704 	 -116.019 	 
C 	 -118.146 	 14.6348 	 -115.023 	 
H 	 -117.1 	 13.5912 	 -116.506 	 
C 	 -115.43 	 15.9549 	 -117.117 	 
H 	 -115.031 	 16.9792 	 -117.131 	 
H 	 -115.939 	 15.9558 	 -118.07 	 
C 	 -114.389 	 14.881 	 -117.187 	 
H 	 -114.108 	 14.491 	 -116.208 	 
H 	 -114.801 	 13.9293 	 -117.504 	 
C 	 -113.213 	 15.4978 	 -117.927 	 
H 	 -113.561 	 15.8469 	 -118.919 	 
H 	 -112.746 	 16.2994 	 -117.377 	 
H 	 -112.388 	 14.7549 	 -118.084 	 
S 	 -118.837 	 13.1502 	 -112.747 	 
C 	 -119.918 	 11.8254 	 -112.996 	 
C 	 -120.499 	 11.7684 	 -114.27 	 
C 	 -119.85 	 12.7085 	 -115.168 	 
C 	 -118.998 	 13.5771 	 -114.504 	 
H 	 -121.161 	 10.9632 	 -114.514 	 
C 	 -120.163 	 12.7146 	 -116.665 	 
H 	 -119.226 	 12.8432 	 -117.217 	 
H 	 -120.685 	 13.6692 	 -116.781 	 
C 	 -120.846 	 11.4352 	 -117.266 	 
H 	 -121.244 	 11.7587 	 -118.197 	 
H 	 -121.688 	 11.1639 	 -116.68 	 
C 	 -119.921 	 10.2058 	 -117.439 	 
H 	 -119.736 	 9.70661 	 -116.503 	 
H 	 -119.033 	 10.5612 	 -117.939 	 
H 	 -120.298 	 9.43295 	 -118.088 	 
H 	 -116.477 	 17.7228 	 -115.282 	 
H 	 -120.166 	 11.0708 	 -112.336 	 
