34

S 	 18.4496 	 -8.11385 	 -118.856 	 
C 	 19.4057 	 -7.88135 	 -117.427 	 
C 	 18.544 	 -7.63287 	 -116.376 	 
C 	 17.1997 	 -7.49004 	 -116.696 	 
C 	 16.9157 	 -7.88557 	 -117.947 	 
H 	 16.4529 	 -7.17317 	 -115.967 	 
C 	 19.0488 	 -7.19699 	 -114.991 	 
H 	 19.9931 	 -7.55923 	 -114.811 	 
H 	 18.3799 	 -7.72658 	 -114.373 	 
C 	 18.9693 	 -5.67665 	 -114.602 	 
H 	 18.0079 	 -5.22368 	 -114.451 	 
H 	 19.3635 	 -5.35267 	 -113.603 	 
C 	 19.7487 	 -4.75712 	 -115.526 	 
H 	 20.7827 	 -5.04612 	 -115.53 	 
H 	 19.441 	 -4.80985 	 -116.608 	 
H 	 19.8504 	 -3.78425 	 -115.114 	 
S 	 15.6809 	 -6.54826 	 -120.063 	 
C 	 13.9452 	 -6.64078 	 -120.169 	 
C 	 13.3755 	 -7.34375 	 -119.145 	 
C 	 14.3137 	 -7.90918 	 -118.223 	 
C 	 15.6314 	 -7.67558 	 -118.654 	 
H 	 12.3438 	 -7.26695 	 -119.008 	 
C 	 13.9071 	 -8.58796 	 -116.881 	 
H 	 14.7418 	 -9.2317 	 -116.666 	 
H 	 13.0837 	 -9.24069 	 -116.975 	 
C 	 13.5821 	 -7.54427 	 -115.832 	 
H 	 12.6155 	 -7.11174 	 -116.035 	 
H 	 14.3395 	 -6.79818 	 -115.917 	 
C 	 13.6439 	 -8.0693 	 -114.414 	 
H 	 14.6719 	 -8.23211 	 -114.229 	 
H 	 13.1299 	 -9.01232 	 -114.407 	 
H 	 13.2022 	 -7.36327 	 -113.744 	 
H 	 20.4962 	 -7.78245 	 -117.427 	 
H 	 13.2942 	 -6.19439 	 -120.841 	 
