34

S 	 -102.73 	 1.5559 	 -106.354 	 
C 	 -103.419 	 1.74985 	 -104.739 	 
C 	 -102.45 	 1.93377 	 -103.774 	 
C 	 -101.112 	 1.80278 	 -104.336 	 
C 	 -101.108 	 1.60453 	 -105.694 	 
H 	 -100.254 	 1.77817 	 -103.751 	 
C 	 -102.671 	 2.13623 	 -102.263 	 
H 	 -103.091 	 3.10782 	 -102.042 	 
H 	 -101.685 	 2.21653 	 -101.725 	 
C 	 -103.674 	 1.12807 	 -101.637 	 
H 	 -104.505 	 0.943253 	 -102.347 	 
H 	 -103.148 	 0.204326 	 -101.403 	 
C 	 -104.214 	 1.74667 	 -100.245 	 
H 	 -105.041 	 1.19519 	 -99.7229 	 
H 	 -103.372 	 1.90971 	 -99.5315 	 
H 	 -104.681 	 2.70907 	 -100.411 	 
S 	 -100.405 	 0.522405 	 -108.067 	 
C 	 -98.8058 	 0.792337 	 -108.769 	 
C 	 -98.0632 	 1.67095 	 -107.994 	 
C 	 -98.6438 	 1.97668 	 -106.715 	 
C 	 -99.9794 	 1.54346 	 -106.625 	 
H 	 -97.1157 	 1.94468 	 -108.401 	 
C 	 -97.977 	 2.78406 	 -105.667 	 
H 	 -98.6702 	 3.43232 	 -105.272 	 
H 	 -97.1751 	 3.34307 	 -106.116 	 
C 	 -97.2723 	 1.94754 	 -104.649 	 
H 	 -96.6848 	 1.18948 	 -105.1 	 
H 	 -98.0372 	 1.35129 	 -104.123 	 
C 	 -96.5872 	 2.8188 	 -103.522 	 
H 	 -95.7089 	 3.30254 	 -103.888 	 
H 	 -96.363 	 2.21208 	 -102.617 	 
H 	 -97.3303 	 3.46346 	 -103.14 	 
H 	 -104.483 	 1.81565 	 -104.422 	 
H 	 -98.3946 	 0.445587 	 -109.691 	 
