34

S 	 -34.8567 	 -38.5611 	 -92.7633 	 
C 	 -33.6013 	 -38.452 	 -91.5669 	 
C 	 -33.7095 	 -37.3315 	 -90.8274 	 
C 	 -34.9255 	 -36.6562 	 -91.1002 	 
C 	 -35.6521 	 -37.1876 	 -92.1025 	 
H 	 -35.3415 	 -35.7953 	 -90.5754 	 
C 	 -32.8499 	 -36.8973 	 -89.6378 	 
H 	 -33.5101 	 -36.2848 	 -88.969 	 
H 	 -31.9263 	 -36.3618 	 -89.9086 	 
C 	 -32.5074 	 -38.0321 	 -88.6621 	 
H 	 -31.8954 	 -38.7741 	 -89.1828 	 
H 	 -32.0034 	 -37.7075 	 -87.7317 	 
C 	 -33.7434 	 -38.8209 	 -88.1085 	 
H 	 -34.1807 	 -38.208 	 -87.2975 	 
H 	 -34.5173 	 -39.109 	 -88.81 	 
H 	 -33.5602 	 -39.801 	 -87.6569 	 
S 	 -38.5026 	 -37.3877 	 -92.0917 	 
C 	 -39.3818 	 -36.1065 	 -92.8132 	 
C 	 -38.6313 	 -35.1164 	 -93.3597 	 
C 	 -37.2243 	 -35.4153 	 -93.1687 	 
C 	 -36.9546 	 -36.6707 	 -92.5334 	 
H 	 -39.0742 	 -34.3019 	 -93.8703 	 
C 	 -36.2301 	 -34.4446 	 -93.8584 	 
H 	 -36.424 	 -34.5658 	 -94.9459 	 
H 	 -35.2146 	 -34.7994 	 -93.6319 	 
C 	 -36.3526 	 -32.9715 	 -93.4717 	 
H 	 -36.2594 	 -32.9181 	 -92.4025 	 
H 	 -37.3626 	 -32.5705 	 -93.6453 	 
C 	 -35.2386 	 -32.1459 	 -94.1765 	 
H 	 -35.1647 	 -32.1742 	 -95.2341 	 
H 	 -34.2989 	 -32.5774 	 -93.8258 	 
H 	 -35.4042 	 -31.0717 	 -93.967 	 
H 	 -32.8498 	 -39.211 	 -91.4207 	 
H 	 -40.4579 	 -35.8569 	 -92.8073 	 
