34

S 	 -87.6788 	 -44.5797 	 -84.7853 	 
C 	 -89.2881 	 -44.3013 	 -85.317 	 
C 	 -90.1061 	 -45.4234 	 -85.4241 	 
C 	 -89.3268 	 -46.5335 	 -84.8977 	 
C 	 -88.1529 	 -46.1805 	 -84.3264 	 
H 	 -89.7268 	 -47.4737 	 -84.7392 	 
C 	 -91.4815 	 -45.3924 	 -85.9836 	 
H 	 -91.523 	 -46.3541 	 -86.5073 	 
H 	 -91.5022 	 -44.6849 	 -86.8318 	 
C 	 -92.6796 	 -45.1716 	 -84.9772 	 
H 	 -92.6161 	 -45.8745 	 -84.2329 	 
H 	 -92.359 	 -44.2393 	 -84.506 	 
C 	 -94.0404 	 -45.0169 	 -85.641 	 
H 	 -94.3897 	 -45.8174 	 -86.3376 	 
H 	 -94.8248 	 -45.0511 	 -84.9087 	 
H 	 -94.208 	 -44.1473 	 -86.2147 	 
S 	 -85.6939 	 -47.3441 	 -84.1167 	 
C 	 -85.3805 	 -48.1175 	 -82.6381 	 
C 	 -86.4508 	 -48.267 	 -81.7906 	 
C 	 -87.6213 	 -47.6506 	 -82.2859 	 
C 	 -87.2864 	 -46.9855 	 -83.4845 	 
H 	 -86.3974 	 -48.7402 	 -80.831 	 
C 	 -88.9103 	 -47.6131 	 -81.4962 	 
H 	 -88.9348 	 -48.492 	 -80.8696 	 
H 	 -89.8006 	 -47.6871 	 -82.2084 	 
C 	 -89.1464 	 -46.3 	 -80.7685 	 
H 	 -88.8018 	 -45.4174 	 -81.3389 	 
H 	 -88.601 	 -46.2406 	 -79.7984 	 
C 	 -90.6724 	 -46.2239 	 -80.3572 	 
H 	 -90.8843 	 -45.3149 	 -79.7923 	 
H 	 -90.7927 	 -47.1438 	 -79.786 	 
H 	 -91.3989 	 -46.2768 	 -81.2531 	 
H 	 -89.5644 	 -43.3161 	 -85.7097 	 
H 	 -84.3598 	 -48.5307 	 -82.4131 	 
