34

S 	 31.455 	 -31.7412 	 -111.002 	 
C 	 31.4271 	 -31.629 	 -109.28 	 
C 	 32.6823 	 -31.3303 	 -108.824 	 
C 	 33.5851 	 -31.0017 	 -109.867 	 
C 	 33.069 	 -31.1951 	 -111.09 	 
H 	 34.5762 	 -30.6922 	 -109.786 	 
C 	 33.064 	 -31.1743 	 -107.382 	 
H 	 32.2655 	 -31.2246 	 -106.716 	 
H 	 33.4966 	 -30.1969 	 -107.17 	 
C 	 34.2162 	 -32.1207 	 -107.063 	 
H 	 34.8605 	 -32.2498 	 -107.846 	 
H 	 34.8062 	 -31.6392 	 -106.285 	 
C 	 33.6599 	 -33.3604 	 -106.363 	 
H 	 32.8975 	 -33.8396 	 -106.959 	 
H 	 34.3066 	 -34.2614 	 -106.083 	 
H 	 33.2114 	 -33.0274 	 -105.412 	 
S 	 32.8683 	 -30.2035 	 -113.569 	 
C 	 34.2212 	 -30.1932 	 -114.635 	 
C 	 35.3093 	 -30.7635 	 -114.054 	 
C 	 35.0889 	 -31.285 	 -112.796 	 
C 	 33.8401 	 -30.9831 	 -112.347 	 
H 	 36.221 	 -30.7959 	 -114.64 	 
C 	 36.2754 	 -31.8248 	 -112.016 	 
H 	 36.6343 	 -32.6664 	 -112.593 	 
H 	 35.7749 	 -32.2253 	 -111.21 	 
C 	 37.45 	 -30.8919 	 -111.689 	 
H 	 36.9771 	 -29.9749 	 -111.31 	 
H 	 37.892 	 -30.6027 	 -112.642 	 
C 	 38.3674 	 -31.5253 	 -110.636 	 
H 	 37.8551 	 -32.0163 	 -109.778 	 
H 	 39.0701 	 -30.8986 	 -110.11 	 
H 	 39.0101 	 -32.2791 	 -111.093 	 
H 	 30.6973 	 -32.0962 	 -108.662 	 
H 	 34.135 	 -29.7356 	 -115.6 	 
