34

S 	 -95.368 	 -38.2507 	 -56.8014 	 
C 	 -95.8938 	 -38.9397 	 -55.2495 	 
C 	 -95.9348 	 -37.9097 	 -54.3202 	 
C 	 -95.4053 	 -36.6679 	 -54.805 	 
C 	 -95.0208 	 -36.7415 	 -56.155 	 
H 	 -95.4092 	 -35.7084 	 -54.2998 	 
C 	 -96.4538 	 -38.0213 	 -52.8833 	 
H 	 -96.9121 	 -37.173 	 -52.5292 	 
H 	 -95.5198 	 -38.2418 	 -52.2821 	 
C 	 -97.4517 	 -39.1287 	 -52.7385 	 
H 	 -98.1949 	 -38.8785 	 -53.5525 	 
H 	 -96.9469 	 -40.0591 	 -52.9904 	 
C 	 -98.1371 	 -39.3057 	 -51.4688 	 
H 	 -98.6671 	 -40.2943 	 -51.3908 	 
H 	 -97.3466 	 -39.2892 	 -50.6965 	 
H 	 -98.8205 	 -38.4903 	 -51.2869 	 
S 	 -92.7419 	 -36.2362 	 -57.6203 	 
C 	 -92.3044 	 -34.6 	 -57.9097 	 
C 	 -93.2296 	 -33.6979 	 -57.5027 	 
C 	 -94.3867 	 -34.3966 	 -56.9483 	 
C 	 -94.2026 	 -35.7278 	 -56.7777 	 
H 	 -93.152 	 -32.6457 	 -57.63 	 
C 	 -95.6314 	 -33.5586 	 -56.6811 	 
H 	 -95.4461 	 -32.4487 	 -56.8713 	 
H 	 -95.8451 	 -33.6247 	 -55.5754 	 
C 	 -96.8983 	 -33.7665 	 -57.4202 	 
H 	 -97.1639 	 -34.8044 	 -57.5037 	 
H 	 -96.6699 	 -33.5866 	 -58.5241 	 
C 	 -98.1104 	 -33.0351 	 -56.7584 	 
H 	 -99.0716 	 -33.2775 	 -57.1585 	 
H 	 -98.1176 	 -31.9997 	 -57.0836 	 
H 	 -98.119 	 -33.1254 	 -55.6371 	 
H 	 -96.2363 	 -39.9752 	 -55.2228 	 
H 	 -91.3388 	 -34.3045 	 -58.2017 	 
