34

S 	 34.3116 	 -33.425 	 -131.829 	 
C 	 34.7551 	 -33.4496 	 -130.135 	 
C 	 35.7702 	 -34.4023 	 -129.876 	 
C 	 36.1041 	 -35.19 	 -131.069 	 
C 	 35.5181 	 -34.6638 	 -132.214 	 
H 	 36.7171 	 -36.1558 	 -131.091 	 
C 	 36.4037 	 -34.7323 	 -128.549 	 
H 	 36.3221 	 -35.7378 	 -128.133 	 
H 	 35.8194 	 -34.1659 	 -127.846 	 
C 	 37.8773 	 -34.2168 	 -128.39 	 
H 	 38.1755 	 -34.1524 	 -127.292 	 
H 	 38.4821 	 -34.9457 	 -128.87 	 
C 	 38.0406 	 -32.7131 	 -128.881 	 
H 	 39.1397 	 -32.4539 	 -128.742 	 
H 	 37.8276 	 -32.4864 	 -129.939 	 
H 	 37.3223 	 -32.1271 	 -128.357 	 
S 	 34.2661 	 -35.2015 	 -134.654 	 
C 	 35.2107 	 -35.8612 	 -135.959 	 
C 	 36.4635 	 -36.2214 	 -135.535 	 
C 	 36.8136 	 -35.6369 	 -134.261 	 
C 	 35.6769 	 -35.1296 	 -133.588 	 
H 	 37.099 	 -36.6738 	 -136.339 	 
C 	 38.1748 	 -35.8787 	 -133.644 	 
H 	 38.2405 	 -35.461 	 -132.637 	 
H 	 38.8932 	 -35.1691 	 -134.139 	 
C 	 38.5948 	 -37.3091 	 -133.626 	 
H 	 38.2835 	 -37.8807 	 -134.474 	 
H 	 38.0986 	 -37.8151 	 -132.773 	 
C 	 40.142 	 -37.5378 	 -133.477 	 
H 	 40.7951 	 -37.1971 	 -134.323 	 
H 	 40.4308 	 -38.5061 	 -133.201 	 
H 	 40.4836 	 -36.9826 	 -132.606 	 
H 	 34.2768 	 -32.7478 	 -129.482 	 
H 	 34.8649 	 -36.121 	 -136.901 	 
