34

S 	 -91.5252 	 13.3768 	 -117.645 	 
C 	 -89.7601 	 13.3315 	 -117.531 	 
C 	 -89.2597 	 12.7155 	 -118.685 	 
C 	 -90.2558 	 12.0848 	 -119.522 	 
C 	 -91.5642 	 12.3594 	 -119.074 	 
H 	 -90.1306 	 11.5849 	 -120.486 	 
C 	 -87.8643 	 12.7352 	 -119.188 	 
H 	 -87.7247 	 13.6989 	 -119.706 	 
H 	 -87.7636 	 11.8772 	 -119.852 	 
C 	 -86.7095 	 12.5588 	 -118.167 	 
H 	 -85.82 	 12.8401 	 -118.736 	 
H 	 -86.7923 	 13.2906 	 -117.356 	 
C 	 -86.5628 	 11.2245 	 -117.524 	 
H 	 -85.8594 	 11.3398 	 -116.674 	 
H 	 -87.4936 	 10.8536 	 -117.12 	 
H 	 -86.1155 	 10.3712 	 -118.106 	 
S 	 -93.8408 	 10.8423 	 -118.863 	 
C 	 -95.0952 	 11.0417 	 -120.102 	 
C 	 -94.5723 	 11.5873 	 -121.262 	 
C 	 -93.2789 	 12.0983 	 -121.049 	 
C 	 -92.8403 	 11.9595 	 -119.744 	 
H 	 -95.2506 	 11.6559 	 -122.106 	 
C 	 -92.4611 	 12.7904 	 -122.115 	 
H 	 -91.4656 	 12.9372 	 -121.731 	 
H 	 -92.8198 	 13.8284 	 -122.233 	 
C 	 -92.6184 	 12.12 	 -123.527 	 
H 	 -93.6572 	 12.2872 	 -123.875 	 
H 	 -92.6105 	 11.0877 	 -123.222 	 
C 	 -91.4743 	 12.3225 	 -124.439 	 
H 	 -90.5322 	 11.9456 	 -123.935 	 
H 	 -91.3437 	 13.3934 	 -124.513 	 
H 	 -91.5606 	 11.9042 	 -125.47 	 
H 	 -89.2162 	 14.0222 	 -116.917 	 
H 	 -96.0143 	 10.6161 	 -120.356 	 
