34

S 	 -105.132 	 34.9702 	 -13.3931 	 
C 	 -104.922 	 35.5349 	 -15.0266 	 
C 	 -106.161 	 35.7349 	 -15.6278 	 
C 	 -107.169 	 35.1714 	 -14.8174 	 
C 	 -106.803 	 34.7056 	 -13.6194 	 
H 	 -108.22 	 35.1325 	 -15.1305 	 
C 	 -106.548 	 36.4124 	 -16.9124 	 
H 	 -107.513 	 36.0594 	 -17.2047 	 
H 	 -105.901 	 36.1442 	 -17.788 	 
C 	 -106.602 	 37.9579 	 -16.7951 	 
H 	 -107.111 	 38.1916 	 -15.897 	 
H 	 -105.622 	 38.4712 	 -16.653 	 
C 	 -107.527 	 38.6138 	 -17.7829 	 
H 	 -107.115 	 38.3845 	 -18.7902 	 
H 	 -108.476 	 38.1216 	 -17.6311 	 
H 	 -107.559 	 39.7484 	 -17.5738 	 
S 	 -108.08 	 35.2545 	 -11.206 	 
C 	 -108.842 	 34.0235 	 -10.2674 	 
C 	 -108.772 	 32.8137 	 -11.01 	 
C 	 -108.133 	 32.9221 	 -12.3085 	 
C 	 -107.653 	 34.2083 	 -12.5499 	 
H 	 -109.195 	 31.9538 	 -10.5503 	 
C 	 -107.96 	 31.6947 	 -13.2174 	 
H 	 -107.497 	 32.0325 	 -14.0803 	 
H 	 -108.9 	 31.2587 	 -13.3788 	 
C 	 -107.039 	 30.6376 	 -12.6063 	 
H 	 -107.5 	 30.1606 	 -11.7342 	 
H 	 -106.114 	 31.0554 	 -12.2482 	 
C 	 -106.852 	 29.4982 	 -13.5527 	 
H 	 -107.783 	 29.085 	 -13.7862 	 
H 	 -106.208 	 28.7516 	 -13.1726 	 
H 	 -106.488 	 29.9127 	 -14.4276 	 
H 	 -104.045 	 35.9312 	 -15.4071 	 
H 	 -109.277 	 34.1502 	 -9.30318 	 
