34

S 	 -133.186 	 7.24453 	 -1.08714 	 
C 	 -131.933 	 8.03427 	 -0.10462 	 
C 	 -131.799 	 7.40603 	 1.1403 	 
C 	 -132.438 	 6.09849 	 1.13344 	 
C 	 -133.434 	 6.00641 	 0.121822 	 
H 	 -132.446 	 5.35316 	 1.92752 	 
C 	 -130.742 	 7.82788 	 2.15189 	 
H 	 -129.901 	 8.31829 	 1.63901 	 
H 	 -130.417 	 6.90522 	 2.62335 	 
C 	 -131.217 	 8.76787 	 3.27765 	 
H 	 -130.38 	 8.90839 	 3.92793 	 
H 	 -131.587 	 9.77889 	 2.92322 	 
C 	 -132.352 	 8.18061 	 4.13943 	 
H 	 -132.831 	 8.85972 	 4.81512 	 
H 	 -133.298 	 8.02246 	 3.61499 	 
H 	 -132.053 	 7.37588 	 4.75683 	 
S 	 -136.09 	 5.83601 	 0.0254171 	 
C 	 -136.846 	 4.22449 	 -0.188002 	 
C 	 -135.945 	 3.18791 	 0.0791769 	 
C 	 -134.608 	 3.74512 	 0.310178 	 
C 	 -134.529 	 5.09985 	 0.0595718 	 
H 	 -136.151 	 2.18125 	 0.18758 	 
C 	 -133.466 	 2.82081 	 0.670656 	 
H 	 -133.914 	 1.98365 	 1.13798 	 
H 	 -132.848 	 3.34042 	 1.46514 	 
C 	 -132.689 	 2.39047 	 -0.494679 	 
H 	 -131.954 	 1.70485 	 -0.0870521 	 
H 	 -132.227 	 3.27962 	 -0.944025 	 
C 	 -133.493 	 1.73454 	 -1.69416 	 
H 	 -134.112 	 2.51428 	 -2.25857 	 
H 	 -134.167 	 1.0024 	 -1.3429 	 
H 	 -132.776 	 1.28295 	 -2.39916 	 
H 	 -131.454 	 8.96602 	 -0.431242 	 
H 	 -137.94 	 4.06609 	 -0.291075 	 
