34

S 	 -114.516 	 54.1271 	 -38.1017 	 
C 	 -113.614 	 53.779 	 -39.5724 	 
C 	 -114.362 	 53.8468 	 -40.7231 	 
C 	 -115.732 	 54.0026 	 -40.3725 	 
C 	 -115.9 	 54.4724 	 -39.1082 	 
H 	 -116.572 	 53.9072 	 -41.0558 	 
C 	 -113.867 	 53.571 	 -42.1273 	 
H 	 -114.691 	 53.0868 	 -42.6279 	 
H 	 -113.059 	 52.8321 	 -42.0753 	 
C 	 -113.568 	 54.8872 	 -42.8076 	 
H 	 -113.268 	 54.6403 	 -43.8283 	 
H 	 -114.435 	 55.4834 	 -43.0191 	 
C 	 -112.472 	 55.7593 	 -42.1083 	 
H 	 -112.02 	 56.5762 	 -42.6879 	 
H 	 -112.835 	 56.3065 	 -41.1614 	 
H 	 -111.647 	 55.0285 	 -41.928 	 
S 	 -118.301 	 54.185 	 -37.7537 	 
C 	 -119.532 	 55.2529 	 -38.1137 	 
C 	 -119.046 	 56.4131 	 -38.6372 	 
C 	 -117.654 	 56.345 	 -38.9404 	 
C 	 -117.09 	 55.1026 	 -38.6303 	 
H 	 -119.752 	 57.1721 	 -38.9097 	 
C 	 -116.976 	 57.4532 	 -39.7249 	 
H 	 -117.249 	 57.3171 	 -40.7862 	 
H 	 -115.917 	 57.5026 	 -39.7672 	 
C 	 -117.448 	 58.8403 	 -39.3295 	 
H 	 -117.527 	 58.9319 	 -38.243 	 
H 	 -118.53 	 58.895 	 -39.5478 	 
C 	 -116.663 	 59.9746 	 -39.8843 	 
H 	 -116.807 	 60.9127 	 -39.2819 	 
H 	 -116.786 	 60.1794 	 -40.8907 	 
H 	 -115.632 	 59.6473 	 -39.8173 	 
H 	 -112.592 	 53.3298 	 -39.5304 	 
H 	 -120.498 	 54.9877 	 -37.8534 	 
