34

S 	 -121.901 	 13.0423 	 -12.3296 	 
C 	 -122.365 	 13.4413 	 -10.7202 	 
C 	 -122.545 	 12.2609 	 -9.92559 	 
C 	 -122.064 	 11.1513 	 -10.5631 	 
C 	 -121.548 	 11.4082 	 -11.7913 	 
H 	 -121.814 	 10.186 	 -10.0803 	 
C 	 -122.981 	 12.361 	 -8.52118 	 
H 	 -123.309 	 11.4747 	 -7.91474 	 
H 	 -123.936 	 12.8575 	 -8.64881 	 
C 	 -122.091 	 13.1287 	 -7.70129 	 
H 	 -121.108 	 12.6692 	 -7.63422 	 
H 	 -122.023 	 14.0916 	 -8.11478 	 
C 	 -122.685 	 13.2229 	 -6.27044 	 
H 	 -122.145 	 13.9703 	 -5.65494 	 
H 	 -123.784 	 13.314 	 -6.303 	 
H 	 -122.368 	 12.3042 	 -5.73221 	 
S 	 -119.165 	 10.8214 	 -13.1568 	 
C 	 -119.015 	 9.43313 	 -14.1507 	 
C 	 -120.184 	 8.71146 	 -14.1663 	 
C 	 -121.208 	 9.34595 	 -13.4288 	 
C 	 -120.842 	 10.476 	 -12.6986 	 
H 	 -120.27 	 7.859 	 -14.8571 	 
C 	 -122.567 	 8.64521 	 -13.2544 	 
H 	 -123.008 	 8.77027 	 -12.2556 	 
H 	 -122.546 	 7.59235 	 -13.1908 	 
C 	 -123.514 	 9.06456 	 -14.3741 	 
H 	 -124.354 	 8.37814 	 -14.4726 	 
H 	 -123.018 	 9.12581 	 -15.3385 	 
C 	 -123.951 	 10.5755 	 -14.1155 	 
H 	 -124.58 	 10.746 	 -13.2269 	 
H 	 -124.466 	 10.9313 	 -15.0142 	 
H 	 -123.131 	 11.2667 	 -13.999 	 
H 	 -122.745 	 14.4118 	 -10.369 	 
H 	 -118.133 	 9.06153 	 -14.6183 	 
