34

S 	 -100.113 	 -3.32238 	 -120.631 	 
C 	 -100.872 	 -3.29255 	 -122.294 	 
C 	 -101.727 	 -2.17459 	 -122.466 	 
C 	 -101.68 	 -1.3019 	 -121.303 	 
C 	 -100.742 	 -1.66147 	 -120.342 	 
H 	 -102.299 	 -0.353095 	 -121.188 	 
C 	 -102.61 	 -1.81747 	 -123.664 	 
H 	 -102.002 	 -2.1166 	 -124.55 	 
H 	 -102.778 	 -0.689277 	 -123.712 	 
C 	 -103.948 	 -2.44664 	 -123.746 	 
H 	 -103.733 	 -3.4899 	 -123.786 	 
H 	 -104.556 	 -2.33225 	 -122.787 	 
C 	 -104.581 	 -1.92234 	 -125.034 	 
H 	 -103.843 	 -1.862 	 -125.851 	 
H 	 -105.452 	 -2.51415 	 -125.292 	 
H 	 -104.961 	 -0.917838 	 -124.81 	 
S 	 -100.8 	 -1.77469 	 -117.608 	 
C 	 -100.85 	 -0.258 	 -116.771 	 
C 	 -100.433 	 0.812491 	 -117.565 	 
C 	 -100.292 	 0.427538 	 -118.982 	 
C 	 -100.508 	 -0.910336 	 -119.141 	 
H 	 -100.147 	 1.81304 	 -117.168 	 
C 	 -100.052 	 1.40548 	 -120.118 	 
H 	 -100.884 	 2.09182 	 -120.06 	 
H 	 -100.192 	 0.939013 	 -121.079 	 
C 	 -98.7805 	 2.1518 	 -120.312 	 
H 	 -97.9007 	 1.56009 	 -120.53 	 
H 	 -98.5352 	 2.75329 	 -119.453 	 
C 	 -98.9633 	 3.17294 	 -121.501 	 
H 	 -99.5679 	 2.84503 	 -122.267 	 
H 	 -98.0418 	 3.53869 	 -121.845 	 
H 	 -99.6292 	 4.02398 	 -121.168 	 
H 	 -100.582 	 -3.96011 	 -123.096 	 
H 	 -100.907 	 -0.186711 	 -115.695 	 
