34

S 	 -58.7803 	 15.1979 	 -85.1545 	 
C 	 -59.5983 	 15.7518 	 -86.5674 	 
C 	 -59.0274 	 16.8852 	 -87.0653 	 
C 	 -57.8245 	 17.2329 	 -86.385 	 
C 	 -57.4838 	 16.3821 	 -85.3307 	 
H 	 -57.1815 	 17.9969 	 -86.6988 	 
C 	 -59.5802 	 17.7404 	 -88.1983 	 
H 	 -59.0389 	 18.6373 	 -88.1385 	 
H 	 -60.5789 	 17.9027 	 -87.8697 	 
C 	 -59.6287 	 17.1261 	 -89.6435 	 
H 	 -60.1026 	 16.171 	 -89.6134 	 
H 	 -60.2904 	 17.795 	 -90.2188 	 
C 	 -58.1926 	 17.0128 	 -90.1852 	 
H 	 -57.9123 	 17.9732 	 -90.5699 	 
H 	 -57.4353 	 16.6534 	 -89.4399 	 
H 	 -58.3668 	 16.3333 	 -91.0197 	 
S 	 -56.3953 	 16.2591 	 -82.707 	 
C 	 -54.7429 	 16.5331 	 -82.4548 	 
C 	 -54.1277 	 16.744 	 -83.6596 	 
C 	 -54.9481 	 16.6655 	 -84.7755 	 
C 	 -56.2628 	 16.309 	 -84.5165 	 
H 	 -53.1156 	 16.8563 	 -83.6675 	 
C 	 -54.3679 	 17.0928 	 -86.0983 	 
H 	 -53.8657 	 18.0417 	 -86.0108 	 
H 	 -55.1635 	 17.2753 	 -86.8298 	 
C 	 -53.562 	 15.9831 	 -86.8107 	 
H 	 -54.0737 	 15.0418 	 -86.8206 	 
H 	 -52.6935 	 15.7698 	 -86.2268 	 
C 	 -53.1462 	 16.3149 	 -88.2477 	 
H 	 -52.7043 	 15.4777 	 -88.8524 	 
H 	 -52.4309 	 17.1232 	 -88.3232 	 
H 	 -53.9595 	 16.6297 	 -88.8535 	 
H 	 -60.5561 	 15.3876 	 -86.8729 	 
H 	 -54.2458 	 16.7124 	 -81.4633 	 
