34

S 	 -117.272 	 26.3501 	 -14.2756 	 
C 	 -117.623 	 25.9645 	 -15.884 	 
C 	 -117.195 	 26.8874 	 -16.8157 	 
C 	 -116.662 	 28.0366 	 -16.1625 	 
C 	 -116.739 	 27.9796 	 -14.7567 	 
H 	 -115.983 	 28.7454 	 -16.6013 	 
C 	 -117.157 	 26.6353 	 -18.3104 	 
H 	 -117.695 	 25.7148 	 -18.5644 	 
H 	 -116.099 	 26.3642 	 -18.4863 	 
C 	 -117.519 	 27.8139 	 -19.1355 	 
H 	 -118.561 	 27.9889 	 -19.0838 	 
H 	 -116.985 	 28.6345 	 -18.7808 	 
C 	 -117.125 	 27.6256 	 -20.6319 	 
H 	 -117.4 	 28.5811 	 -21.2214 	 
H 	 -116.045 	 27.417 	 -20.7109 	 
H 	 -117.712 	 26.7578 	 -21.0232 	 
S 	 -114.91 	 28.6021 	 -12.714 	 
C 	 -114.635 	 30.2716 	 -12.4676 	 
C 	 -115.516 	 31.0684 	 -13.0501 	 
C 	 -116.488 	 30.3485 	 -13.8525 	 
C 	 -116.184 	 28.9835 	 -13.8915 	 
H 	 -115.371 	 32.1851 	 -12.8523 	 
C 	 -117.616 	 31.0972 	 -14.5444 	 
H 	 -117.762 	 30.8006 	 -15.6102 	 
H 	 -117.417 	 32.1798 	 -14.7082 	 
C 	 -119.021 	 31.0727 	 -13.7818 	 
H 	 -119.771 	 31.6522 	 -14.329 	 
H 	 -118.752 	 31.5815 	 -12.804 	 
C 	 -119.655 	 29.6707 	 -13.5081 	 
H 	 -120.331 	 29.2781 	 -14.2572 	 
H 	 -120.245 	 29.7953 	 -12.6344 	 
H 	 -118.878 	 28.9712 	 -13.2371 	 
H 	 -118.127 	 24.9975 	 -16.1444 	 
H 	 -113.894 	 30.7636 	 -11.7606 	 
