34

S 	 -16.1336 	 -32.6891 	 -104.72 	 
C 	 -15.3059 	 -32.5944 	 -103.202 	 
C 	 -14.4418 	 -33.6451 	 -102.985 	 
C 	 -14.3954 	 -34.4534 	 -104.158 	 
C 	 -15.0522 	 -33.9421 	 -105.304 	 
H 	 -13.7108 	 -35.2615 	 -104.28 	 
C 	 -13.8562 	 -33.9819 	 -101.601 	 
H 	 -14.5231 	 -34.8678 	 -101.332 	 
H 	 -14.0705 	 -33.2569 	 -100.837 	 
C 	 -12.4336 	 -34.3492 	 -101.398 	 
H 	 -12.3453 	 -34.4803 	 -100.356 	 
H 	 -12.2756 	 -35.3394 	 -101.767 	 
C 	 -11.4769 	 -33.3127 	 -101.798 	 
H 	 -11.3348 	 -32.587 	 -100.914 	 
H 	 -10.5375 	 -33.7544 	 -102.169 	 
H 	 -11.8191 	 -32.5972 	 -102.56 	 
S 	 -16.4579 	 -34.5987 	 -107.55 	 
C 	 -15.6755 	 -35.3534 	 -108.976 	 
C 	 -14.2906 	 -35.4364 	 -108.723 	 
C 	 -13.9023 	 -34.9197 	 -107.416 	 
C 	 -14.9684 	 -34.4047 	 -106.693 	 
H 	 -13.6686 	 -35.8479 	 -109.449 	 
C 	 -12.4085 	 -34.8518 	 -106.949 	 
H 	 -12.0776 	 -35.923 	 -106.991 	 
H 	 -12.3788 	 -34.6391 	 -105.873 	 
C 	 -11.4059 	 -34.0993 	 -107.833 	 
H 	 -11.5251 	 -34.5824 	 -108.78 	 
H 	 -10.3606 	 -34.1878 	 -107.491 	 
C 	 -11.7634 	 -32.6682 	 -107.919 	 
H 	 -12.8154 	 -32.5465 	 -108.249 	 
H 	 -11.2479 	 -32.1565 	 -108.736 	 
H 	 -11.4993 	 -32.1383 	 -106.984 	 
H 	 -15.6001 	 -31.8344 	 -102.45 	 
H 	 -16.0747 	 -35.6924 	 -109.938 	 
