34

S 	 -41.5562 	 12.7307 	 -10.3138 	 
C 	 -41.243 	 11.052 	 -10.739 	 
C 	 -40.6672 	 10.4314 	 -9.63158 	 
C 	 -40.5462 	 11.2403 	 -8.45664 	 
C 	 -40.9567 	 12.5698 	 -8.7015 	 
H 	 -40.246 	 10.8463 	 -7.52761 	 
C 	 -40.5558 	 8.96645 	 -9.46462 	 
H 	 -40.9325 	 8.46929 	 -10.4158 	 
H 	 -41.3721 	 8.68135 	 -8.81845 	 
C 	 -39.1968 	 8.34939 	 -9.22656 	 
H 	 -38.4352 	 8.67166 	 -9.90673 	 
H 	 -38.8147 	 8.69139 	 -8.20598 	 
C 	 -39.1756 	 6.81154 	 -9.31754 	 
H 	 -39.5546 	 6.37656 	 -10.252 	 
H 	 -38.2076 	 6.38066 	 -9.00099 	 
H 	 -39.9607 	 6.45582 	 -8.65435 	 
S 	 -42.0751 	 14.9961 	 -8.03168 	 
C 	 -41.4381 	 15.8996 	 -6.64681 	 
C 	 -40.5865 	 15.1386 	 -5.96202 	 
C 	 -40.3883 	 13.8215 	 -6.42351 	 
C 	 -41.0049 	 13.6684 	 -7.67563 	 
H 	 -40.1576 	 15.5442 	 -5.01201 	 
C 	 -39.3752 	 12.8497 	 -5.8271 	 
H 	 -39.7587 	 11.8427 	 -5.8714 	 
H 	 -39.1746 	 13.1324 	 -4.75839 	 
C 	 -37.9435 	 12.8595 	 -6.32972 	 
H 	 -37.6361 	 13.8779 	 -6.62494 	 
H 	 -37.9431 	 12.2636 	 -7.24164 	 
C 	 -36.9749 	 12.2205 	 -5.26677 	 
H 	 -37.0635 	 12.5934 	 -4.23993 	 
H 	 -35.9788 	 12.4041 	 -5.59314 	 
H 	 -37.0875 	 11.1224 	 -5.32801 	 
H 	 -41.5356 	 10.6577 	 -11.7132 	 
H 	 -41.7425 	 16.8691 	 -6.28868 	 
