34

S 	 12.3556 	 -17.4037 	 -117.819 	 
C 	 11.4504 	 -15.9319 	 -118.017 	 
C 	 10.4802 	 -15.83 	 -116.992 	 
C 	 10.4111 	 -16.9968 	 -116.214 	 
C 	 11.3975 	 -17.9613 	 -116.454 	 
H 	 9.67158 	 -17.1883 	 -115.414 	 
C 	 9.53545 	 -14.6603 	 -116.809 	 
H 	 9.60835 	 -13.8092 	 -117.494 	 
H 	 9.9969 	 -14.2024 	 -115.961 	 
C 	 8.00144 	 -14.8869 	 -116.517 	 
H 	 7.54731 	 -15.6289 	 -117.176 	 
H 	 8.02565 	 -15.3709 	 -115.577 	 
C 	 7.26501 	 -13.5615 	 -116.481 	 
H 	 6.27238 	 -13.5576 	 -116.04 	 
H 	 7.85081 	 -12.8967 	 -115.856 	 
H 	 7.13792 	 -13.1383 	 -117.477 	 
S 	 10.7105 	 -20.6209 	 -116.623 	 
C 	 10.9049 	 -21.7039 	 -115.297 	 
C 	 11.5949 	 -21.0571 	 -114.273 	 
C 	 11.8403 	 -19.6564 	 -114.446 	 
C 	 11.5144 	 -19.2619 	 -115.763 	 
H 	 11.9594 	 -21.5928 	 -113.378 	 
C 	 12.6024 	 -18.8027 	 -113.47 	 
H 	 12.4718 	 -17.7424 	 -113.818 	 
H 	 13.5955 	 -19.0663 	 -113.652 	 
C 	 12.0703 	 -18.9945 	 -112.017 	 
H 	 12.7295 	 -18.4637 	 -111.315 	 
H 	 12.1103 	 -20.0745 	 -111.677 	 
C 	 10.6668 	 -18.4535 	 -111.752 	 
H 	 9.94843 	 -19.0837 	 -112.24 	 
H 	 10.6594 	 -17.4797 	 -112.218 	 
H 	 10.4226 	 -18.4651 	 -110.688 	 
H 	 11.4215 	 -15.3069 	 -118.825 	 
H 	 10.4619 	 -22.6653 	 -115.139 	 
