34

S 	 -79.7847 	 -26.895 	 -54.4099 	 
C 	 -78.8026 	 -27.4914 	 -53.1294 	 
C 	 -79.5299 	 -27.3858 	 -51.9269 	 
C 	 -80.9184 	 -27.0508 	 -52.0981 	 
C 	 -81.2393 	 -26.8582 	 -53.4307 	 
H 	 -81.6535 	 -27.0093 	 -51.3321 	 
C 	 -78.8192 	 -27.7838 	 -50.6087 	 
H 	 -78.4613 	 -26.89 	 -50.1461 	 
H 	 -77.8879 	 -28.321 	 -50.7417 	 
C 	 -79.7989 	 -28.5429 	 -49.6108 	 
H 	 -80.6071 	 -27.8161 	 -49.3387 	 
H 	 -80.313 	 -29.3583 	 -50.2038 	 
C 	 -79.1483 	 -28.9529 	 -48.2901 	 
H 	 -79.7427 	 -29.7786 	 -47.8709 	 
H 	 -78.1222 	 -29.3494 	 -48.3848 	 
H 	 -79.0746 	 -28.1243 	 -47.5459 	 
S 	 -82.7343 	 -24.7049 	 -54.4618 	 
C 	 -84.3904 	 -24.977 	 -55.0013 	 
C 	 -84.8314 	 -26.2287 	 -54.6337 	 
C 	 -83.7549 	 -26.9816 	 -54.0399 	 
C 	 -82.5033 	 -26.3568 	 -53.9483 	 
H 	 -85.9166 	 -26.4342 	 -54.734 	 
C 	 -83.9787 	 -28.4524 	 -53.6009 	 
H 	 -84.9648 	 -28.5386 	 -53.225 	 
H 	 -83.3375 	 -28.6395 	 -52.7536 	 
C 	 -83.8606 	 -29.4251 	 -54.8386 	 
H 	 -84.6759 	 -29.391 	 -55.4818 	 
H 	 -83.9249 	 -30.4407 	 -54.4423 	 
C 	 -82.5754 	 -29.3767 	 -55.665 	 
H 	 -81.745 	 -29.5973 	 -55.0488 	 
H 	 -82.3526 	 -28.4002 	 -56.1508 	 
H 	 -82.6108 	 -30.2371 	 -56.3538 	 
H 	 -77.7627 	 -27.758 	 -53.2904 	 
H 	 -84.9873 	 -24.1328 	 -55.2871 	 
