34

S 	 -100.866 	 -1.45665 	 -108.069 	 
C 	 -99.5199 	 -1.75041 	 -109.164 	 
C 	 -99.527 	 -3.05451 	 -109.594 	 
C 	 -100.627 	 -3.81741 	 -109.054 	 
C 	 -101.347 	 -3.11758 	 -108.141 	 
H 	 -101.036 	 -4.73459 	 -109.359 	 
C 	 -98.7812 	 -3.62811 	 -110.718 	 
H 	 -98.8382 	 -2.86412 	 -111.534 	 
H 	 -99.2671 	 -4.52064 	 -111.091 	 
C 	 -97.2539 	 -3.92526 	 -110.592 	 
H 	 -97.0666 	 -4.60115 	 -109.752 	 
H 	 -96.9887 	 -4.27748 	 -111.536 	 
C 	 -96.5422 	 -2.5622 	 -110.392 	 
H 	 -96.896 	 -1.88109 	 -111.169 	 
H 	 -96.7435 	 -2.00236 	 -109.456 	 
H 	 -95.4701 	 -2.47355 	 -110.372 	 
S 	 -104.065 	 -2.80128 	 -107.698 	 
C 	 -104.921 	 -3.96064 	 -106.744 	 
C 	 -104.181 	 -4.99477 	 -106.348 	 
C 	 -102.801 	 -4.89802 	 -106.846 	 
C 	 -102.532 	 -3.67 	 -107.495 	 
H 	 -104.598 	 -5.72676 	 -105.735 	 
C 	 -101.749 	 -5.94112 	 -106.542 	 
H 	 -101.3 	 -6.25093 	 -107.468 	 
H 	 -102.251 	 -6.84097 	 -106.13 	 
C 	 -100.698 	 -5.50253 	 -105.476 	 
H 	 -101.247 	 -5.36349 	 -104.561 	 
H 	 -100.225 	 -4.59991 	 -105.751 	 
C 	 -99.6866 	 -6.63732 	 -105.214 	 
H 	 -100.18 	 -7.56792 	 -104.9 	 
H 	 -99.0366 	 -6.3129 	 -104.454 	 
H 	 -99.0681 	 -6.86729 	 -106.052 	 
H 	 -98.9266 	 -0.979951 	 -109.646 	 
H 	 -105.892 	 -3.73845 	 -106.497 	 
