34

S 	 -62.371 	 8.68874 	 19.6976 	 
C 	 -60.9177 	 9.69539 	 19.7987 	 
C 	 -60.6641 	 10.1282 	 21.113 	 
C 	 -61.5945 	 9.51242 	 21.9983 	 
C 	 -62.6008 	 8.78916 	 21.4028 	 
H 	 -61.6808 	 9.59155 	 23.0451 	 
C 	 -59.5671 	 11.1283 	 21.4914 	 
H 	 -59.2842 	 11.1161 	 22.611 	 
H 	 -59.9817 	 12.0855 	 21.3228 	 
C 	 -58.308 	 10.9803 	 20.6099 	 
H 	 -57.7802 	 10.0023 	 20.7677 	 
H 	 -58.5605 	 10.9087 	 19.5101 	 
C 	 -57.2401 	 12.1316 	 20.8725 	 
H 	 -56.4548 	 11.9415 	 20.2156 	 
H 	 -57.7456 	 13.0541 	 20.4762 	 
H 	 -57.0726 	 12.266 	 22.0021 	 
S 	 -64.39 	 8.83059 	 23.5333 	 
C 	 -65.642 	 7.53426 	 23.6712 	 
C 	 -65.2866 	 6.52377 	 22.7731 	 
C 	 -64.1745 	 6.77726 	 21.9275 	 
C 	 -63.6046 	 8.06661 	 22.1749 	 
H 	 -66.0668 	 5.74286 	 22.7559 	 
C 	 -63.7615 	 5.69409 	 20.8868 	 
H 	 -62.8287 	 5.96585 	 20.4518 	 
H 	 -64.4401 	 5.82081 	 20.1087 	 
C 	 -63.734 	 4.25546 	 21.425 	 
H 	 -64.747 	 3.95474 	 21.6345 	 
H 	 -63.1489 	 4.26595 	 22.3782 	 
C 	 -63.1889 	 3.19838 	 20.4341 	 
H 	 -64.0355 	 2.70845 	 19.8634 	 
H 	 -62.6433 	 2.47478 	 20.9646 	 
H 	 -62.5124 	 3.60628 	 19.693 	 
H 	 -60.4276 	 10.0108 	 18.8397 	 
H 	 -66.5363 	 7.54777 	 24.2668 	 
