34

S 	 -94.9411 	 7.80946 	 2.36894 	 
C 	 -95.7178 	 7.21558 	 0.949754 	 
C 	 -96.8962 	 6.5337 	 1.29427 	 
C 	 -97.168 	 6.65103 	 2.70755 	 
C 	 -96.1229 	 7.10213 	 3.48229 	 
H 	 -98.0882 	 6.4099 	 3.1724 	 
C 	 -97.8669 	 6.04348 	 0.271678 	 
H 	 -97.4182 	 5.44472 	 -0.463039 	 
H 	 -98.2443 	 6.97631 	 -0.194868 	 
C 	 -99.1656 	 5.27468 	 0.704053 	 
H 	 -98.8007 	 4.42571 	 1.16632 	 
H 	 -99.6322 	 5.96494 	 1.51505 	 
C 	 -100.101 	 4.92487 	 -0.423144 	 
H 	 -99.6647 	 4.21454 	 -1.15835 	 
H 	 -101.057 	 4.57946 	 -0.0833538 	 
H 	 -100.375 	 5.81522 	 -0.923327 	 
S 	 -95.7717 	 9.14692 	 5.22576 	 
C 	 -96.337 	 8.94943 	 6.80622 	 
C 	 -96.5424 	 7.66494 	 7.08559 	 
C 	 -96.4232 	 6.7139 	 5.9923 	 
C 	 -96.0044 	 7.41596 	 4.86515 	 
H 	 -96.91 	 7.41704 	 7.99375 	 
C 	 -96.8161 	 5.21996 	 6.17027 	 
H 	 -96.5821 	 4.88682 	 7.12606 	 
H 	 -96.3322 	 4.62475 	 5.4099 	 
C 	 -98.3313 	 4.91034 	 5.91527 	 
H 	 -98.4779 	 3.84597 	 5.99083 	 
H 	 -98.5498 	 5.2623 	 4.94529 	 
C 	 -99.3047 	 5.83737 	 6.6968 	 
H 	 -98.9938 	 6.0153 	 7.76156 	 
H 	 -100.308 	 5.4331 	 6.67847 	 
H 	 -99.1227 	 6.82314 	 6.35833 	 
H 	 -95.267 	 7.36553 	 0.0252284 	 
H 	 -96.3357 	 9.73833 	 7.5223 	 
