34

S 	 -82.5613 	 -11.0551 	 -58.0024 	 
C 	 -82.5822 	 -9.5252 	 -58.838 	 
C 	 -82.648 	 -9.75698 	 -60.2106 	 
C 	 -82.7026 	 -11.1546 	 -60.5704 	 
C 	 -82.751 	 -11.9775 	 -59.4824 	 
H 	 -82.7473 	 -11.5542 	 -61.5472 	 
C 	 -82.7069 	 -8.61245 	 -61.2209 	 
H 	 -83.2825 	 -7.86862 	 -60.7094 	 
H 	 -83.0784 	 -8.82177 	 -62.169 	 
C 	 -81.3424 	 -8.11201 	 -61.6062 	 
H 	 -80.7184 	 -7.92713 	 -60.7262 	 
H 	 -80.8689 	 -8.83971 	 -62.1975 	 
C 	 -81.3896 	 -6.7915 	 -62.4185 	 
H 	 -82.0645 	 -6.98712 	 -63.2661 	 
H 	 -81.7035 	 -5.87404 	 -61.8566 	 
H 	 -80.361 	 -6.61208 	 -62.8446 	 
S 	 -81.8579 	 -14.215 	 -58.3088 	 
C 	 -82.6779 	 -15.7028 	 -58.5287 	 
C 	 -83.7229 	 -15.5724 	 -59.4218 	 
C 	 -83.8077 	 -14.2644 	 -60.0467 	 
C 	 -82.8916 	 -13.4174 	 -59.4644 	 
H 	 -84.3521 	 -16.4105 	 -59.685 	 
C 	 -84.9303 	 -13.8258 	 -60.9304 	 
H 	 -84.8453 	 -12.699 	 -61.0929 	 
H 	 -85.8464 	 -14.066 	 -60.3925 	 
C 	 -85.1874 	 -14.6104 	 -62.1959 	 
H 	 -86.2591 	 -14.3285 	 -62.4534 	 
H 	 -85.0612 	 -15.7139 	 -61.9513 	 
C 	 -84.1758 	 -14.3071 	 -63.2825 	 
H 	 -83.2578 	 -14.9314 	 -63.094 	 
H 	 -83.8954 	 -13.2879 	 -63.5857 	 
H 	 -84.5686 	 -14.8475 	 -64.2191 	 
H 	 -82.4225 	 -8.5393 	 -58.428 	 
H 	 -82.4777 	 -16.663 	 -58.0363 	 
