34

S 	 -87.8345 	 -1.10424 	 -61.2668 	 
C 	 -87.5485 	 0.276736 	 -62.3844 	 
C 	 -86.296 	 0.148344 	 -62.9833 	 
C 	 -85.5282 	 -0.829003 	 -62.3157 	 
C 	 -86.1902 	 -1.52292 	 -61.235 	 
H 	 -84.4398 	 -0.965282 	 -62.4252 	 
C 	 -85.7601 	 1.01085 	 -64.1149 	 
H 	 -84.7023 	 1.17413 	 -63.8182 	 
H 	 -86.1007 	 2.06819 	 -64.1197 	 
C 	 -85.7885 	 0.417833 	 -65.5204 	 
H 	 -85.4117 	 1.22546 	 -66.1525 	 
H 	 -85.0141 	 -0.408601 	 -65.6693 	 
C 	 -87.1554 	 -0.03964 	 -66.057 	 
H 	 -87.9591 	 0.768607 	 -65.9151 	 
H 	 -87.0787 	 -0.408244 	 -67.1583 	 
H 	 -87.538 	 -0.900887 	 -65.4802 	 
S 	 -86.6132 	 -3.73716 	 -59.7238 	 
C 	 -85.4399 	 -4.5009 	 -58.7111 	 
C 	 -84.3481 	 -3.68423 	 -58.6374 	 
C 	 -84.4168 	 -2.56354 	 -59.6081 	 
C 	 -85.6231 	 -2.48292 	 -60.2998 	 
H 	 -83.5219 	 -3.70537 	 -57.9956 	 
C 	 -83.324 	 -1.54741 	 -59.6761 	 
H 	 -82.8491 	 -1.43646 	 -58.6522 	 
H 	 -83.7257 	 -0.583021 	 -59.9751 	 
C 	 -82.2369 	 -1.90077 	 -60.689 	 
H 	 -82.6706 	 -1.9379 	 -61.691 	 
H 	 -81.9444 	 -2.85344 	 -60.2363 	 
C 	 -80.9597 	 -0.951148 	 -60.6341 	 
H 	 -80.4647 	 -0.881162 	 -59.6232 	 
H 	 -81.2247 	 -0.00438955 	 -61.189 	 
H 	 -80.0997 	 -1.44086 	 -61.1655 	 
H 	 -88.1859 	 1.02175 	 -62.7619 	 
H 	 -85.6668 	 -5.38225 	 -58.0705 	 
