34

S 	 -43.8821 	 -0.286572 	 -20.1438 	 
C 	 -43.4804 	 0.321557 	 -18.5448 	 
C 	 -42.6866 	 -0.595521 	 -17.838 	 
C 	 -42.2751 	 -1.65211 	 -18.6914 	 
C 	 -42.8417 	 -1.64376 	 -19.9782 	 
H 	 -41.6578 	 -2.46124 	 -18.3599 	 
C 	 -42.2651 	 -0.429536 	 -16.4066 	 
H 	 -42.1306 	 0.634424 	 -16.1701 	 
H 	 -41.277 	 -0.914625 	 -16.349 	 
C 	 -43.2859 	 -1.17213 	 -15.452 	 
H 	 -43.1767 	 -0.581141 	 -14.5976 	 
H 	 -44.2898 	 -1.06082 	 -15.8087 	 
C 	 -43.1074 	 -2.74637 	 -15.2212 	 
H 	 -43.159 	 -3.20571 	 -16.1512 	 
H 	 -42.1433 	 -2.90639 	 -14.7947 	 
H 	 -43.8458 	 -3.14692 	 -14.5179 	 
S 	 -44.1324 	 -3.71472 	 -21.2587 	 
C 	 -43.3494 	 -4.38425 	 -22.633 	 
C 	 -41.9999 	 -4.12779 	 -22.6575 	 
C 	 -41.6654 	 -3.12799 	 -21.7092 	 
C 	 -42.7342 	 -2.72673 	 -20.9553 	 
H 	 -41.3494 	 -4.59145 	 -23.3613 	 
C 	 -40.2527 	 -2.57622 	 -21.6241 	 
H 	 -39.6494 	 -3.47835 	 -21.6539 	 
H 	 -40.2106 	 -2.1809 	 -20.6521 	 
C 	 -39.7454 	 -1.58129 	 -22.688 	 
H 	 -39.6281 	 -1.98502 	 -23.6737 	 
H 	 -38.7412 	 -1.22075 	 -22.4726 	 
C 	 -40.7428 	 -0.316464 	 -22.6749 	 
H 	 -41.8086 	 -0.511656 	 -22.8321 	 
H 	 -40.2736 	 0.516433 	 -23.2704 	 
H 	 -40.7225 	 0.0445533 	 -21.6748 	 
H 	 -43.8899 	 1.23125 	 -18.0836 	 
H 	 -43.8457 	 -5.05247 	 -23.3061 	 
