34

S 	 -61.2629 	 -4.1502 	 -28.2339 	 
C 	 -60.7579 	 -2.63155 	 -28.9238 	 
C 	 -61.0703 	 -1.5533 	 -28.0703 	 
C 	 -61.5353 	 -2.11079 	 -26.8005 	 
C 	 -61.5445 	 -3.48294 	 -26.648 	 
H 	 -61.6295 	 -1.45684 	 -25.9038 	 
C 	 -60.9455 	 -0.0365753 	 -28.2865 	 
H 	 -60.1818 	 0.254697 	 -29.0363 	 
H 	 -60.6043 	 0.326079 	 -27.3507 	 
C 	 -62.3134 	 0.594265 	 -28.5606 	 
H 	 -62.7677 	 0.0568185 	 -29.3458 	 
H 	 -62.8763 	 0.443746 	 -27.6606 	 
C 	 -62.1332 	 2.06381 	 -28.9338 	 
H 	 -63.1004 	 2.38738 	 -29.1639 	 
H 	 -61.7211 	 2.59577 	 -28.1073 	 
H 	 -61.6015 	 2.11395 	 -29.8032 	 
S 	 -62.8912 	 -5.67181 	 -25.762 	 
C 	 -63.0918 	 -5.99971 	 -24.083 	 
C 	 -62.1198 	 -5.22083 	 -23.4185 	 
C 	 -61.4229 	 -4.21368 	 -24.1632 	 
C 	 -61.751 	 -4.36192 	 -25.4942 	 
H 	 -61.9333 	 -5.47154 	 -22.3437 	 
C 	 -60.3783 	 -3.31829 	 -23.5737 	 
H 	 -60.7777 	 -2.29233 	 -23.5051 	 
H 	 -59.5397 	 -3.21923 	 -24.3255 	 
C 	 -59.7891 	 -3.69038 	 -22.1783 	 
H 	 -59.4583 	 -4.74151 	 -22.1716 	 
H 	 -60.6499 	 -3.66023 	 -21.4724 	 
C 	 -58.7268 	 -2.76623 	 -21.7366 	 
H 	 -58.4296 	 -2.91989 	 -20.7418 	 
H 	 -59.1856 	 -1.73405 	 -21.7473 	 
H 	 -58.0309 	 -2.63917 	 -22.5038 	 
H 	 -60.5376 	 -2.33232 	 -29.9455 	 
H 	 -63.704 	 -6.75476 	 -23.6551 	 
