34

S 	 -105.455 	 55.1465 	 -79.4395 	 
C 	 -105.248 	 54.404 	 -81.0189 	 
C 	 -106.085 	 55.0504 	 -81.9405 	 
C 	 -106.984 	 55.9629 	 -81.3461 	 
C 	 -106.812 	 56.149 	 -80.0228 	 
H 	 -107.779 	 56.4092 	 -81.9041 	 
C 	 -106.229 	 54.6647 	 -83.353 	 
H 	 -107.321 	 54.7356 	 -83.6515 	 
H 	 -105.986 	 53.6552 	 -83.4532 	 
C 	 -105.206 	 55.2529 	 -84.383 	 
H 	 -105.097 	 56.3012 	 -84.0088 	 
H 	 -104.231 	 54.8132 	 -84.1607 	 
C 	 -105.544 	 54.9477 	 -85.7909 	 
H 	 -106.182 	 55.7212 	 -86.2004 	 
H 	 -104.628 	 55.0029 	 -86.409 	 
H 	 -105.812 	 53.8683 	 -85.9062 	 
S 	 -106.754 	 57.7319 	 -77.8114 	 
C 	 -108.123 	 58.8323 	 -77.4932 	 
C 	 -109.228 	 58.2948 	 -78.0946 	 
C 	 -108.965 	 57.2169 	 -79.0183 	 
C 	 -107.599 	 56.942 	 -79.1229 	 
H 	 -110.247 	 58.5841 	 -77.7989 	 
C 	 -110.105 	 56.6788 	 -79.8592 	 
H 	 -109.75 	 56.688 	 -80.8303 	 
H 	 -110.975 	 57.3539 	 -79.8462 	 
C 	 -110.612 	 55.225 	 -79.5184 	 
H 	 -109.7 	 54.6427 	 -79.3552 	 
H 	 -111.129 	 54.8197 	 -80.4093 	 
C 	 -111.509 	 55.246 	 -78.252 	 
H 	 -111.612 	 54.2611 	 -77.819 	 
H 	 -112.421 	 55.7325 	 -78.4392 	 
H 	 -110.914 	 55.8785 	 -77.5664 	 
H 	 -104.533 	 53.603 	 -81.2765 	 
H 	 -108.222 	 59.6378 	 -76.705 	 
