34

S 	 -103.285 	 1.38208 	 -121.684 	 
C 	 -103.979 	 1.1252 	 -120.147 	 
C 	 -102.958 	 0.833358 	 -119.206 	 
C 	 -101.653 	 0.779246 	 -119.702 	 
C 	 -101.626 	 1.07295 	 -121.03 	 
H 	 -100.705 	 0.714424 	 -119.14 	 
C 	 -103.28 	 0.721259 	 -117.664 	 
H 	 -102.371 	 0.226876 	 -117.34 	 
H 	 -104.041 	 0.0478633 	 -117.428 	 
C 	 -103.453 	 2.01015 	 -116.993 	 
H 	 -102.493 	 2.51218 	 -117.187 	 
H 	 -104.226 	 2.65553 	 -117.375 	 
C 	 -103.7 	 1.89052 	 -115.531 	 
H 	 -104.296 	 1.07158 	 -115.298 	 
H 	 -102.752 	 1.63111 	 -115.186 	 
H 	 -103.944 	 2.78575 	 -115.056 	 
S 	 -100.52 	 0.0510262 	 -123.313 	 
C 	 -98.7933 	 0.312681 	 -123.712 	 
C 	 -98.1198 	 0.956023 	 -122.694 	 
C 	 -99.0278 	 1.30072 	 -121.585 	 
C 	 -100.405 	 0.959103 	 -121.806 	 
H 	 -97.0714 	 1.07697 	 -122.692 	 
C 	 -98.5411 	 1.97992 	 -120.341 	 
H 	 -97.4197 	 2.0567 	 -120.383 	 
H 	 -98.6738 	 1.28734 	 -119.502 	 
C 	 -98.9868 	 3.3927 	 -120.039 	 
H 	 -98.5906 	 3.72164 	 -119.063 	 
H 	 -100.097 	 3.4565 	 -119.978 	 
C 	 -98.4289 	 4.43361 	 -121.126 	 
H 	 -98.6093 	 4.10608 	 -122.125 	 
H 	 -97.3591 	 4.59613 	 -121.127 	 
H 	 -98.8931 	 5.39905 	 -120.944 	 
H 	 -104.972 	 1.35292 	 -119.823 	 
H 	 -98.2635 	 -0.0387682 	 -124.522 	 
