34

S 	 45.6128 	 -12.0027 	 -104.624 	 
C 	 46.8373 	 -11.4691 	 -105.813 	 
C 	 46.3043 	 -11.5385 	 -107.113 	 
C 	 44.9177 	 -11.8429 	 -107.092 	 
C 	 44.3372 	 -11.9919 	 -105.84 	 
H 	 44.2264 	 -11.9372 	 -107.97 	 
C 	 47.1143 	 -11.2409 	 -108.354 	 
H 	 47.9003 	 -10.4649 	 -108.054 	 
H 	 46.6151 	 -10.878 	 -109.231 	 
C 	 47.8788 	 -12.4396 	 -108.845 	 
H 	 48.5941 	 -12.7552 	 -108.138 	 
H 	 47.1321 	 -13.195 	 -109.113 	 
C 	 48.5475 	 -12.241 	 -110.301 	 
H 	 49.1837 	 -13.1274 	 -110.564 	 
H 	 47.7796 	 -12.1365 	 -111.068 	 
H 	 49.2039 	 -11.4327 	 -110.25 	 
S 	 42.8053 	 -13.8041 	 -104.542 	 
C 	 41.1013 	 -13.7965 	 -104.845 	 
C 	 40.6573 	 -12.7572 	 -105.678 	 
C 	 41.803 	 -11.9206 	 -106.012 	 
C 	 43.0138 	 -12.3762 	 -105.476 	 
H 	 39.6806 	 -12.6801 	 -106.043 	 
C 	 41.5771 	 -10.7646 	 -106.943 	 
H 	 42.4408 	 -10.13 	 -106.973 	 
H 	 40.7834 	 -10.1621 	 -106.367 	 
C 	 41.0158 	 -11.0687 	 -108.336 	 
H 	 40.8734 	 -10.0826 	 -108.764 	 
H 	 40.1033 	 -11.5978 	 -108.212 	 
C 	 41.8616 	 -11.9605 	 -109.254 	 
H 	 41.3826 	 -12.2635 	 -110.257 	 
H 	 42.249 	 -12.8626 	 -108.753 	 
H 	 42.7583 	 -11.3654 	 -109.505 	 
H 	 47.9131 	 -11.554 	 -105.711 	 
H 	 40.4384 	 -14.4958 	 -104.375 	 
