34

S 	 -69.8239 	 18.4855 	 -71.0051 	 
C 	 -68.189 	 18.6 	 -70.3565 	 
C 	 -67.2459 	 18.5103 	 -71.3238 	 
C 	 -67.7896 	 18.4395 	 -72.6502 	 
C 	 -69.1596 	 18.4628 	 -72.6569 	 
H 	 -67.2088 	 18.1944 	 -73.5721 	 
C 	 -65.7337 	 18.422 	 -71.0647 	 
H 	 -65.2716 	 17.5723 	 -71.628 	 
H 	 -65.7545 	 18.1546 	 -69.9919 	 
C 	 -64.8702 	 19.6521 	 -71.2999 	 
H 	 -65.0177 	 19.9061 	 -72.3488 	 
H 	 -65.1152 	 20.5155 	 -70.6919 	 
C 	 -63.3637 	 19.4218 	 -71.1004 	 
H 	 -63.1475 	 19.1583 	 -70.0058 	 
H 	 -62.9838 	 18.7386 	 -71.833 	 
H 	 -62.7373 	 20.2863 	 -71.2976 	 
S 	 -71.4292 	 17.547 	 -73.7833 	 
C 	 -71.9922 	 18.1258 	 -75.3893 	 
C 	 -70.9892 	 18.8736 	 -75.9689 	 
C 	 -69.9202 	 19.1959 	 -75.0139 	 
C 	 -70.0013 	 18.514 	 -73.841 	 
H 	 -71.0505 	 19.2746 	 -76.9664 	 
C 	 -68.8891 	 20.2376 	 -75.4515 	 
H 	 -68.1496 	 20.4327 	 -74.7325 	 
H 	 -69.4496 	 21.1773 	 -75.5526 	 
C 	 -68.1575 	 19.8565 	 -76.7634 	 
H 	 -67.4855 	 20.6875 	 -77.1604 	 
H 	 -68.9171 	 19.6694 	 -77.5391 	 
C 	 -67.0993 	 18.7771 	 -76.6015 	 
H 	 -67.5681 	 18.0004 	 -76.035 	 
H 	 -66.2554 	 19.0425 	 -75.9763 	 
H 	 -66.8081 	 18.3777 	 -77.5556 	 
H 	 -67.8506 	 18.7588 	 -69.327 	 
H 	 -73.0594 	 18.0216 	 -75.8513 	 
