34

S 	 34.6529 	 -25.8884 	 -119.039 	 
C 	 36.3247 	 -25.8463 	 -118.462 	 
C 	 37.072 	 -26.6674 	 -119.248 	 
C 	 36.4132 	 -27.3866 	 -120.287 	 
C 	 35.0791 	 -27.1175 	 -120.325 	 
H 	 36.8506 	 -28.154 	 -120.874 	 
C 	 38.5027 	 -26.9321 	 -118.92 	 
H 	 38.8013 	 -26.026 	 -118.352 	 
H 	 39.1004 	 -27.0246 	 -119.883 	 
C 	 38.8069 	 -28.2493 	 -118.074 	 
H 	 38.2717 	 -28.9869 	 -118.629 	 
H 	 39.8458 	 -28.4815 	 -118.162 	 
C 	 38.2784 	 -28.1684 	 -116.692 	 
H 	 38.446 	 -27.2462 	 -116.133 	 
H 	 37.2623 	 -28.3865 	 -116.691 	 
H 	 38.6838 	 -28.9647 	 -116.021 	 
S 	 34.5091 	 -27.693 	 -122.842 	 
C 	 33.0419 	 -28.6635 	 -123.17 	 
C 	 32.3519 	 -29.0575 	 -122.058 	 
C 	 33.022 	 -28.5875 	 -120.902 	 
C 	 34.1688 	 -27.7984 	 -121.152 	 
H 	 31.3945 	 -29.5572 	 -122.141 	 
C 	 32.4488 	 -28.744 	 -119.545 	 
H 	 31.6124 	 -28.0379 	 -119.499 	 
H 	 33.1727 	 -28.3728 	 -118.811 	 
C 	 31.9498 	 -30.1278 	 -119.16 	 
H 	 31.1567 	 -30.4729 	 -119.809 	 
H 	 31.5259 	 -29.9845 	 -118.173 	 
C 	 32.992 	 -31.208 	 -119.075 	 
H 	 32.5496 	 -32.0987 	 -118.654 	 
H 	 33.7606 	 -30.9787 	 -118.361 	 
H 	 33.46 	 -31.3498 	 -120.084 	 
H 	 36.6942 	 -25.3098 	 -117.611 	 
H 	 32.7306 	 -28.9072 	 -124.151 	 
