34

S 	 -36.3764 	 -7.18232 	 18.1444 	 
C 	 -35.9797 	 -8.88642 	 17.7526 	 
C 	 -36.869 	 -9.81693 	 18.3468 	 
C 	 -37.9448 	 -9.14141 	 19.0211 	 
C 	 -37.8459 	 -7.75968 	 18.9082 	 
H 	 -38.772 	 -9.65861 	 19.4703 	 
C 	 -36.7619 	 -11.3806 	 18.2154 	 
H 	 -36.1654 	 -11.7729 	 19.0666 	 
H 	 -36.1749 	 -11.6019 	 17.4529 	 
C 	 -38.0374 	 -12.1377 	 17.8997 	 
H 	 -38.5683 	 -12.4721 	 18.7553 	 
H 	 -38.7253 	 -11.5177 	 17.288 	 
C 	 -37.8046 	 -13.4082 	 17.0438 	 
H 	 -38.7584 	 -13.8138 	 16.6279 	 
H 	 -37.1132 	 -13.2406 	 16.2075 	 
H 	 -37.4793 	 -14.1942 	 17.6388 	 
S 	 -38.4341 	 -5.40244 	 20.1648 	 
C 	 -39.9982 	 -4.66585 	 20.0403 	 
C 	 -40.9454 	 -5.55266 	 19.5848 	 
C 	 -40.3419 	 -6.8771 	 19.3073 	 
C 	 -38.9216 	 -6.7955 	 19.3171 	 
H 	 -41.9737 	 -5.33197 	 19.378 	 
C 	 -41.1727 	 -8.01897 	 18.6795 	 
H 	 -41.2883 	 -8.63211 	 19.555 	 
H 	 -40.5929 	 -8.55843 	 17.8955 	 
C 	 -42.4428 	 -7.65548 	 17.9958 	 
H 	 -43.1067 	 -7.14064 	 18.7342 	 
H 	 -42.9051 	 -8.62347 	 17.8551 	 
C 	 -42.1798 	 -6.92605 	 16.6893 	 
H 	 -41.6729 	 -7.56448 	 15.9855 	 
H 	 -41.7031 	 -5.94785 	 16.7939 	 
H 	 -43.1149 	 -6.73108 	 16.1448 	 
H 	 -35.1263 	 -9.17976 	 17.1151 	 
H 	 -40.2676 	 -3.67589 	 20.3087 	 
