34

S 	 -117.592 	 25.2499 	 -116.359 	 
C 	 -119.186 	 24.8561 	 -117.058 	 
C 	 -119.695 	 26.0047 	 -117.551 	 
C 	 -118.938 	 27.1637 	 -117.333 	 
C 	 -117.79 	 26.974 	 -116.57 	 
H 	 -119.319 	 28.2149 	 -117.467 	 
C 	 -121.095 	 26.1036 	 -118.192 	 
H 	 -121.4 	 25.0834 	 -118.517 	 
H 	 -120.995 	 26.673 	 -119.096 	 
C 	 -122.219 	 26.7607 	 -117.369 	 
H 	 -121.681 	 27.6601 	 -116.991 	 
H 	 -123.183 	 27.03 	 -117.969 	 
C 	 -122.703 	 26.0664 	 -116.134 	 
H 	 -121.859 	 25.6548 	 -115.578 	 
H 	 -123.35 	 26.6951 	 -115.47 	 
H 	 -123.35 	 25.2442 	 -116.461 	 
S 	 -115.181 	 28.0488 	 -116.933 	 
C 	 -114.581 	 29.1747 	 -115.71 	 
C 	 -115.553 	 29.6027 	 -114.851 	 
C 	 -116.838 	 29.0361 	 -115.255 	 
C 	 -116.798 	 28.0143 	 -116.224 	 
H 	 -115.37 	 30.2551 	 -114.003 	 
C 	 -118.073 	 29.4135 	 -114.514 	 
H 	 -118.822 	 28.9383 	 -115.079 	 
H 	 -118.251 	 30.4674 	 -114.68 	 
C 	 -118.272 	 28.8896 	 -113.049 	 
H 	 -119.214 	 29.1587 	 -112.581 	 
H 	 -117.441 	 29.3922 	 -112.501 	 
C 	 -118.082 	 27.4319 	 -112.773 	 
H 	 -118.429 	 27.1699 	 -111.778 	 
H 	 -117.032 	 27.0521 	 -112.881 	 
H 	 -118.757 	 26.7941 	 -113.347 	 
H 	 -119.679 	 23.924 	 -117.116 	 
H 	 -113.581 	 29.5967 	 -115.72 	 
