34

S 	 -94.5698 	 50.7114 	 -100.124 	 
C 	 -93.9806 	 50.9672 	 -98.4983 	 
C 	 -94.3542 	 52.2456 	 -98.0501 	 
C 	 -95.0736 	 52.97 	 -99.0358 	 
C 	 -95.36 	 52.2701 	 -100.244 	 
H 	 -95.6104 	 53.9052 	 -98.8869 	 
C 	 -94.1713 	 52.7346 	 -96.6707 	 
H 	 -93.5058 	 53.6069 	 -96.7522 	 
H 	 -93.5878 	 52.0673 	 -96.075 	 
C 	 -95.3721 	 53.1335 	 -95.8148 	 
H 	 -95.9485 	 53.9525 	 -96.2706 	 
H 	 -96.0636 	 52.2954 	 -95.6894 	 
C 	 -95.1155 	 53.5583 	 -94.4407 	 
H 	 -94.6803 	 52.7125 	 -93.8429 	 
H 	 -94.3758 	 54.2995 	 -94.3227 	 
H 	 -96.0046 	 53.8553 	 -93.8973 	 
S 	 -97.5882 	 51.3275 	 -101.63 	 
C 	 -98.6252 	 52.5165 	 -102.374 	 
C 	 -97.9712 	 53.7556 	 -102.476 	 
C 	 -96.7856 	 53.7972 	 -101.699 	 
C 	 -96.3806 	 52.5637 	 -101.275 	 
H 	 -98.4527 	 54.5784 	 -102.883 	 
C 	 -96.0575 	 55.0781 	 -101.434 	 
H 	 -95.0604 	 54.9784 	 -101.676 	 
H 	 -96.0921 	 55.2976 	 -100.387 	 
C 	 -96.5757 	 56.3211 	 -102.332 	 
H 	 -97.5856 	 56.5344 	 -101.946 	 
H 	 -96.6382 	 55.9184 	 -103.383 	 
C 	 -95.698 	 57.5516 	 -102.279 	 
H 	 -94.6748 	 57.3503 	 -102.754 	 
H 	 -95.5808 	 58.0572 	 -101.296 	 
H 	 -96.2173 	 58.2493 	 -102.973 	 
H 	 -93.7789 	 50.1423 	 -97.8956 	 
H 	 -99.5679 	 52.2992 	 -102.775 	 
