34

S 	 -100.003 	 7.48218 	 2.44359 	 
C 	 -101.217 	 7.62542 	 1.20151 	 
C 	 -100.635 	 7.75924 	 -0.0521672 	 
C 	 -99.2219 	 7.93044 	 0.024421 	 
C 	 -98.7424 	 7.83462 	 1.3606 	 
H 	 -98.5741 	 8.12388 	 -0.77271 	 
C 	 -101.393 	 7.82835 	 -1.35013 	 
H 	 -102.45 	 7.81756 	 -0.967909 	 
H 	 -101.027 	 6.92831 	 -1.86229 	 
C 	 -101.155 	 8.99639 	 -2.26229 	 
H 	 -101.729 	 9.84964 	 -1.8053 	 
H 	 -100.045 	 9.19023 	 -2.39165 	 
C 	 -101.904 	 8.8053 	 -3.60046 	 
H 	 -102.89 	 8.34688 	 -3.36962 	 
H 	 -102.02 	 9.78333 	 -4.11033 	 
H 	 -101.311 	 8.23844 	 -4.26285 	 
S 	 -96.7997 	 6.66603 	 2.78149 	 
C 	 -95.1358 	 7.36876 	 2.7202 	 
C 	 -95.0525 	 8.49765 	 2.02375 	 
C 	 -96.3068 	 8.87338 	 1.52699 	 
C 	 -97.3761 	 8.00608 	 1.86652 	 
H 	 -94.0427 	 9.05337 	 2.03346 	 
C 	 -96.4059 	 10.0131 	 0.47946 	 
H 	 -97.1983 	 9.67671 	 -0.231977 	 
H 	 -95.461 	 10.1629 	 -0.0690541 	 
C 	 -96.8702 	 11.3577 	 1.06261 	 
H 	 -97.101 	 12.0041 	 0.264018 	 
H 	 -95.989 	 11.7498 	 1.60326 	 
C 	 -97.9945 	 11.2206 	 2.02719 	 
H 	 -98.2923 	 12.2454 	 2.34697 	 
H 	 -97.687 	 10.5672 	 2.83915 	 
H 	 -98.7736 	 10.8617 	 1.36295 	 
H 	 -102.256 	 7.5117 	 1.31656 	 
H 	 -94.293 	 7.01836 	 3.30119 	 
