34

S 	 -50.8743 	 18.246 	 26.5687 	 
C 	 -51.2954 	 18.4976 	 24.8707 	 
C 	 -50.2968 	 18.0526 	 24.0243 	 
C 	 -49.1662 	 17.5742 	 24.7918 	 
C 	 -49.3609 	 17.5444 	 26.1283 	 
H 	 -48.31 	 17.1377 	 24.2899 	 
C 	 -50.2617 	 18.1422 	 22.5444 	 
H 	 -51.2217 	 18.6493 	 22.1992 	 
H 	 -50.2832 	 17.1387 	 22.1528 	 
C 	 -49.1193 	 18.9266 	 21.8702 	 
H 	 -49.2824 	 19.9706 	 22.0542 	 
H 	 -48.1762 	 18.6366 	 22.2703 	 
C 	 -49.0989 	 18.7113 	 20.292 	 
H 	 -48.9784 	 17.5994 	 20.0537 	 
H 	 -50.0371 	 18.9175 	 19.8154 	 
H 	 -48.4284 	 19.3046 	 19.7173 	 
S 	 -49.3197 	 15.8898 	 28.2999 	 
C 	 -47.8383 	 15.5431 	 29.1024 	 
C 	 -46.7977 	 16.1065 	 28.3736 	 
C 	 -47.1482 	 16.8249 	 27.2189 	 
C 	 -48.4898 	 16.7758 	 27.0627 	 
H 	 -45.7787 	 15.7582 	 28.6328 	 
C 	 -46.1004 	 17.4882 	 26.3109 	 
H 	 -46.2783 	 16.9472 	 25.3581 	 
H 	 -45.157 	 17.2673 	 26.5927 	 
C 	 -46.2615 	 18.9543 	 26.1014 	 
H 	 -47.2122 	 19.2559 	 25.5543 	 
H 	 -45.5272 	 19.308 	 25.3276 	 
C 	 -46.2226 	 19.9734 	 27.2799 	 
H 	 -46.6634 	 20.8787 	 26.9009 	 
H 	 -45.147 	 20.0943 	 27.5766 	 
H 	 -46.8443 	 19.5633 	 28.1298 	 
H 	 -52.1655 	 19.0642 	 24.4771 	 
H 	 -47.5854 	 14.9507 	 30.015 	 
