34

S 	 37.6121 	 -4.38965 	 -119.133 	 
C 	 36.9889 	 -5.95118 	 -119.652 	 
C 	 37.5602 	 -6.33914 	 -120.862 	 
C 	 38.5993 	 -5.39478 	 -121.356 	 
C 	 38.7503 	 -4.31028 	 -120.485 	 
H 	 39.3297 	 -5.61332 	 -122.098 	 
C 	 37.0912 	 -7.45722 	 -121.777 	 
H 	 37.1021 	 -8.41506 	 -121.262 	 
H 	 37.8418 	 -7.50092 	 -122.632 	 
C 	 35.6446 	 -6.99889 	 -122.242 	 
H 	 35.035 	 -7.08789 	 -121.358 	 
H 	 35.6245 	 -5.96394 	 -122.599 	 
C 	 35.1019 	 -7.78572 	 -123.482 	 
H 	 34.1247 	 -7.48148 	 -123.687 	 
H 	 35.7243 	 -7.66671 	 -124.315 	 
H 	 35.0957 	 -8.88256 	 -123.226 	 
S 	 40.4637 	 -3.01368 	 -122.215 	 
C 	 41.3361 	 -1.59731 	 -121.789 	 
C 	 40.996 	 -1.18831 	 -120.517 	 
C 	 39.9995 	 -2.04327 	 -119.913 	 
C 	 39.6702 	 -3.1326 	 -120.692 	 
H 	 41.4228 	 -0.246649 	 -120.035 	 
C 	 39.5758 	 -1.83652 	 -118.442 	 
H 	 38.5236 	 -1.9089 	 -118.23 	 
H 	 39.8093 	 -0.825127 	 -118.154 	 
C 	 40.4485 	 -2.6501 	 -117.457 	 
H 	 41.4686 	 -2.43281 	 -117.76 	 
H 	 40.1218 	 -3.7236 	 -117.458 	 
C 	 40.3002 	 -2.08897 	 -116.052 	 
H 	 40.8191 	 -2.57317 	 -115.264 	 
H 	 39.2031 	 -2.02944 	 -115.741 	 
H 	 40.6061 	 -1.07938 	 -115.893 	 
H 	 36.1335 	 -6.39964 	 -119.285 	 
H 	 41.9845 	 -1.04941 	 -122.49 	 
