34

S 	 -46.5328 	 13.7351 	 26.5754 	 
C 	 -46.5366 	 14.024 	 24.8127 	 
C 	 -47.7313 	 13.6976 	 24.2216 	 
C 	 -48.6889 	 13.2767 	 25.2369 	 
C 	 -48.2012 	 13.2359 	 26.5326 	 
H 	 -49.7688 	 13.0744 	 25.0158 	 
C 	 -48.1784 	 13.8117 	 22.7545 	 
H 	 -48.8144 	 12.9651 	 22.6911 	 
H 	 -47.4849 	 13.539 	 22.0855 	 
C 	 -48.7845 	 15.167 	 22.2972 	 
H 	 -48.083 	 15.9699 	 22.5706 	 
H 	 -48.9765 	 15.0932 	 21.2208 	 
C 	 -50.0694 	 15.5017 	 23.1166 	 
H 	 -50.9409 	 14.8522 	 22.9448 	 
H 	 -49.8573 	 15.4527 	 24.1709 	 
H 	 -50.4742 	 16.5085 	 22.941 	 
S 	 -48.1211 	 12.2143 	 29.0825 	 
C 	 -49.5421 	 12.2038 	 30.0803 	 
C 	 -50.5709 	 12.9468 	 29.5314 	 
C 	 -50.2588 	 13.4146 	 28.2327 	 
C 	 -48.9783 	 13.0541 	 27.759 	 
H 	 -51.4586 	 13.1027 	 30.155 	 
C 	 -51.1587 	 14.3134 	 27.4364 	 
H 	 -52.1807 	 14.228 	 27.8271 	 
H 	 -51.3681 	 13.7929 	 26.4963 	 
C 	 -50.7142 	 15.7584 	 27.1697 	 
H 	 -51.5249 	 16.3557 	 26.7729 	 
H 	 -49.7663 	 15.8181 	 26.5434 	 
C 	 -50.316 	 16.504 	 28.4829 	 
H 	 -51.1554 	 16.5064 	 29.1874 	 
H 	 -50.0013 	 17.4839 	 28.2615 	 
H 	 -49.4581 	 16.0673 	 28.9694 	 
H 	 -45.6862 	 14.404 	 24.2512 	 
H 	 -49.7153 	 11.6584 	 31.0128 	 
