34

S 	 -32.2156 	 -34.0547 	 -95.587 	 
C 	 -31.98 	 -35.3391 	 -94.4823 	 
C 	 -30.6589 	 -35.3759 	 -94.0198 	 
C 	 -29.7918 	 -34.5898 	 -94.8246 	 
C 	 -30.5041 	 -33.9033 	 -95.8094 	 
H 	 -28.6925 	 -34.5737 	 -94.8829 	 
C 	 -30.1139 	 -36.4304 	 -93.1325 	 
H 	 -29.3983 	 -37.0091 	 -93.7253 	 
H 	 -30.9413 	 -37.1007 	 -92.8423 	 
C 	 -29.5484 	 -35.7669 	 -91.8955 	 
H 	 -28.9072 	 -34.9582 	 -92.1662 	 
H 	 -30.3439 	 -35.3485 	 -91.304 	 
C 	 -28.671 	 -36.6423 	 -91.0521 	 
H 	 -28.1522 	 -35.917 	 -90.3971 	 
H 	 -29.2437 	 -37.3421 	 -90.4682 	 
H 	 -28.0122 	 -37.2786 	 -91.7408 	 
S 	 -30.4971 	 -33.1784 	 -98.5276 	 
C 	 -29.1701 	 -32.1361 	 -99.0675 	 
C 	 -28.4329 	 -31.6261 	 -97.9932 	 
C 	 -28.957 	 -32.0663 	 -96.7584 	 
C 	 -29.8859 	 -33.1211 	 -96.8585 	 
H 	 -27.6297 	 -30.895 	 -98.1905 	 
C 	 -28.4988 	 -31.5175 	 -95.4262 	 
H 	 -27.4932 	 -31.0736 	 -95.5402 	 
H 	 -28.3411 	 -32.3521 	 -94.7608 	 
C 	 -29.6074 	 -30.6504 	 -94.7735 	 
H 	 -30.4285 	 -31.2925 	 -94.4993 	 
H 	 -30.016 	 -29.9757 	 -95.4884 	 
C 	 -29.1144 	 -29.9148 	 -93.5855 	 
H 	 -28.7643 	 -30.6364 	 -92.8356 	 
H 	 -29.8421 	 -29.3019 	 -93.0352 	 
H 	 -28.3073 	 -29.1543 	 -93.8286 	 
H 	 -32.7828 	 -35.952 	 -94.0636 	 
H 	 -28.8932 	 -31.8594 	 -100.126 	 
