34

S 	 -110.784 	 64.37 	 -76.259 	 
C 	 -109.593 	 63.1732 	 -75.8807 	 
C 	 -110.163 	 61.9775 	 -75.378 	 
C 	 -111.582 	 62.1438 	 -75.3403 	 
C 	 -112.032 	 63.3846 	 -75.6719 	 
H 	 -112.328 	 61.423 	 -74.8518 	 
C 	 -109.414 	 60.6522 	 -75.3046 	 
H 	 -109.025 	 60.4739 	 -76.3127 	 
H 	 -110.071 	 59.8816 	 -75.2323 	 
C 	 -108.27 	 60.5998 	 -74.2432 	 
H 	 -107.667 	 59.6265 	 -74.4204 	 
H 	 -107.656 	 61.427 	 -74.4662 	 
C 	 -108.812 	 60.7706 	 -72.7765 	 
H 	 -109.445 	 59.9226 	 -72.4329 	 
H 	 -108.072 	 61.0121 	 -71.9405 	 
H 	 -109.421 	 61.6963 	 -72.7079 	 
S 	 -113.773 	 65.3293 	 -74.6348 	 
C 	 -115.459 	 65.0151 	 -74.7188 	 
C 	 -115.747 	 63.9259 	 -75.5179 	 
C 	 -114.595 	 63.2167 	 -75.9668 	 
C 	 -113.408 	 63.7947 	 -75.5139 	 
H 	 -116.778 	 63.7061 	 -75.6931 	 
C 	 -114.722 	 62.0204 	 -76.7743 	 
H 	 -115.451 	 61.4023 	 -76.2962 	 
H 	 -113.9 	 61.4024 	 -76.6585 	 
C 	 -115.098 	 62.2266 	 -78.2374 	 
H 	 -115.861 	 62.98 	 -78.366 	 
H 	 -115.552 	 61.3499 	 -78.6467 	 
C 	 -113.941 	 62.6113 	 -79.2405 	 
H 	 -113.538 	 63.6313 	 -79.1624 	 
H 	 -114.113 	 62.3946 	 -80.2618 	 
H 	 -113.163 	 61.9304 	 -78.8705 	 
H 	 -108.498 	 63.2955 	 -76.0933 	 
H 	 -116.201 	 65.7341 	 -74.4979 	 
