34

S 	 45.9475 	 -22.596 	 -110.981 	 
C 	 47.3875 	 -22.916 	 -111.982 	 
C 	 47.2507 	 -24.077 	 -112.763 	 
C 	 46.0397 	 -24.7641 	 -112.458 	 
C 	 45.1968 	 -24.1239 	 -111.574 	 
H 	 45.856 	 -25.702 	 -112.915 	 
C 	 48.2321 	 -24.4922 	 -113.906 	 
H 	 47.5651 	 -24.5729 	 -114.778 	 
H 	 48.5854 	 -25.5218 	 -113.729 	 
C 	 49.4581 	 -23.5632 	 -114.28 	 
H 	 48.992 	 -22.5778 	 -114.36 	 
H 	 50.0824 	 -23.4373 	 -113.416 	 
C 	 50.1759 	 -23.904 	 -115.585 	 
H 	 50.4825 	 -24.9294 	 -115.628 	 
H 	 49.6896 	 -23.6356 	 -116.529 	 
H 	 51.1336 	 -23.4669 	 -115.633 	 
S 	 43.6783 	 -24.4037 	 -109.354 	 
C 	 42.226 	 -25.336 	 -109.333 	 
C 	 41.8927 	 -25.7519 	 -110.608 	 
C 	 42.851 	 -25.3273 	 -111.597 	 
C 	 43.9372 	 -24.6376 	 -111.04 	 
H 	 40.8722 	 -26.1277 	 -110.757 	 
C 	 42.6482 	 -25.6461 	 -113.145 	 
H 	 43.4055 	 -25.1423 	 -113.78 	 
H 	 41.6926 	 -25.2872 	 -113.469 	 
C 	 42.6319 	 -27.1928 	 -113.423 	 
H 	 41.7343 	 -27.5177 	 -112.913 	 
H 	 43.4063 	 -27.6573 	 -112.849 	 
C 	 42.7483 	 -27.6377 	 -114.921 	 
H 	 42.2681 	 -28.5909 	 -114.973 	 
H 	 43.8069 	 -27.6928 	 -115.142 	 
H 	 42.2877 	 -26.8897 	 -115.577 	 
H 	 48.2088 	 -22.1722 	 -112.095 	 
H 	 41.7185 	 -25.557 	 -108.388 	 
