34

S 	 -64.1992 	 19.685 	 -69.9475 	 
C 	 -63.3083 	 18.1667 	 -70.0602 	 
C 	 -64.1363 	 17.1898 	 -69.6191 	 
C 	 -65.4805 	 17.5696 	 -69.2861 	 
C 	 -65.6836 	 18.9141 	 -69.4295 	 
H 	 -66.2081 	 16.8714 	 -68.8374 	 
C 	 -63.6934 	 15.7487 	 -69.568 	 
H 	 -64.5685 	 15.083 	 -69.3285 	 
H 	 -62.9986 	 15.5841 	 -68.723 	 
C 	 -63.0801 	 15.2666 	 -70.899 	 
H 	 -63.6757 	 15.6474 	 -71.7236 	 
H 	 -62.1333 	 15.7732 	 -70.9574 	 
C 	 -62.7901 	 13.8073 	 -71.1263 	 
H 	 -62.2191 	 13.6322 	 -72.0847 	 
H 	 -62.2426 	 13.2464 	 -70.3439 	 
H 	 -63.7557 	 13.3104 	 -71.1923 	 
S 	 -66.5723 	 20.9425 	 -67.9356 	 
C 	 -68.2087 	 21.4783 	 -68.0481 	 
C 	 -68.9188 	 20.7317 	 -68.9649 	 
C 	 -68.1055 	 19.7593 	 -69.639 	 
C 	 -66.8324 	 19.7475 	 -69.1798 	 
H 	 -69.9943 	 20.7944 	 -69.0796 	 
C 	 -68.6294 	 18.7875 	 -70.7028 	 
H 	 -67.8157 	 18.3117 	 -71.1497 	 
H 	 -69.0513 	 19.473 	 -71.375 	 
C 	 -69.6707 	 17.7244 	 -70.2471 	 
H 	 -69.9036 	 17.0889 	 -71.1169 	 
H 	 -70.5199 	 18.2506 	 -69.9971 	 
C 	 -69.1307 	 16.7851 	 -69.2008 	 
H 	 -68.288 	 16.1491 	 -69.4662 	 
H 	 -69.9198 	 16.1454 	 -68.7726 	 
H 	 -68.8021 	 17.3586 	 -68.3657 	 
H 	 -62.2813 	 18.0892 	 -70.1399 	 
H 	 -68.7062 	 22.1136 	 -67.3848 	 
