34

S 	 -142.834 	 26.5096 	 -14.0222 	 
C 	 -143.546 	 25.7122 	 -15.3577 	 
C 	 -144.218 	 26.6684 	 -16.1906 	 
C 	 -144.03 	 28.0468 	 -15.7131 	 
C 	 -143.11 	 28.1607 	 -14.6693 	 
H 	 -144.388 	 28.974 	 -16.1792 	 
C 	 -145.032 	 26.3664 	 -17.4532 	 
H 	 -146.083 	 26.5534 	 -17.2629 	 
H 	 -145.003 	 25.2737 	 -17.497 	 
C 	 -144.442 	 26.9975 	 -18.7377 	 
H 	 -144.137 	 28.06 	 -18.5195 	 
H 	 -143.492 	 26.4907 	 -19.0213 	 
C 	 -145.374 	 26.8246 	 -19.9733 	 
H 	 -145.452 	 25.7944 	 -20.2784 	 
H 	 -146.362 	 27.1516 	 -19.7549 	 
H 	 -145.074 	 27.3191 	 -20.8484 	 
S 	 -142.8 	 29.3761 	 -12.2199 	 
C 	 -141.823 	 30.8601 	 -12.0975 	 
C 	 -141.381 	 31.3126 	 -13.3199 	 
C 	 -141.854 	 30.4595 	 -14.4057 	 
C 	 -142.572 	 29.354 	 -13.9849 	 
H 	 -140.798 	 32.1913 	 -13.3304 	 
C 	 -141.503 	 30.7517 	 -15.8588 	 
H 	 -141.692 	 30.0002 	 -16.5808 	 
H 	 -140.453 	 30.8835 	 -15.9381 	 
C 	 -142.209 	 32.0178 	 -16.4097 	 
H 	 -141.864 	 32.1973 	 -17.4062 	 
H 	 -141.706 	 32.7814 	 -15.8568 	 
C 	 -143.688 	 31.9522 	 -16.3713 	 
H 	 -144.089 	 31.8724 	 -15.3956 	 
H 	 -144.077 	 31.1151 	 -16.9943 	 
H 	 -144.032 	 32.8866 	 -16.7979 	 
H 	 -143.531 	 24.6473 	 -15.5004 	 
H 	 -141.301 	 31.0943 	 -11.1838 	 
