34

S 	 -58.3146 	 16.2688 	 23.6298 	 
C 	 -59.3386 	 14.8729 	 23.1545 	 
C 	 -58.5603 	 13.742 	 22.9868 	 
C 	 -57.1771 	 14.0151 	 23.3096 	 
C 	 -56.8079 	 15.3215 	 23.5681 	 
H 	 -56.3978 	 13.2916 	 23.3853 	 
C 	 -59.1201 	 12.3399 	 22.7208 	 
H 	 -59.8445 	 12.0639 	 23.515 	 
H 	 -58.2319 	 11.6765 	 22.6757 	 
C 	 -59.9567 	 12.3521 	 21.4091 	 
H 	 -60.5956 	 13.2162 	 21.3508 	 
H 	 -59.3101 	 12.4152 	 20.5814 	 
C 	 -60.8381 	 11.1801 	 21.214 	 
H 	 -61.656 	 11.5057 	 20.538 	 
H 	 -60.4276 	 10.4033 	 20.5469 	 
H 	 -61.2158 	 10.8095 	 22.1481 	 
S 	 -55.347 	 17.0096 	 25.0301 	 
C 	 -53.6633 	 17.0255 	 24.8725 	 
C 	 -53.1726 	 16.2566 	 23.8552 	 
C 	 -54.2409 	 15.5488 	 23.2484 	 
C 	 -55.5013 	 15.9113 	 23.7156 	 
H 	 -52.135 	 16.2152 	 23.6063 	 
C 	 -53.9613 	 14.6156 	 22.0672 	 
H 	 -54.2818 	 13.5254 	 22.2717 	 
H 	 -52.8571 	 14.6069 	 21.8972 	 
C 	 -54.5659 	 15.1049 	 20.7008 	 
H 	 -55.604 	 15.1531 	 20.9176 	 
H 	 -54.4494 	 14.4434 	 19.8415 	 
C 	 -53.9757 	 16.5192 	 20.4481 	 
H 	 -54.2804 	 17.2831 	 21.1713 	 
H 	 -54.2947 	 16.8541 	 19.5005 	 
H 	 -52.8572 	 16.663 	 20.488 	 
H 	 -60.3621 	 15.0675 	 23.1297 	 
H 	 -52.9872 	 17.6386 	 25.4715 	 
