34

S 	 -59.6009 	 3.61348 	 -19.2874 	 
C 	 -61.326 	 4.17639 	 -19.5125 	 
C 	 -61.9227 	 3.59259 	 -20.5417 	 
C 	 -60.9959 	 2.74046 	 -21.2462 	 
C 	 -59.7525 	 2.67565 	 -20.7227 	 
H 	 -61.247 	 2.30581 	 -22.2282 	 
C 	 -63.3758 	 3.73522 	 -20.9673 	 
H 	 -63.5178 	 3.49782 	 -21.9838 	 
H 	 -63.4681 	 4.83561 	 -20.8432 	 
C 	 -64.2667 	 2.83338 	 -20.016 	 
H 	 -64.2112 	 1.80084 	 -20.1826 	 
H 	 -63.8898 	 2.98319 	 -18.9897 	 
C 	 -65.77 	 3.10135 	 -20.1609 	 
H 	 -66.0483 	 3.35623 	 -21.192 	 
H 	 -66.2917 	 2.22455 	 -19.7234 	 
H 	 -66.1576 	 3.96496 	 -19.5913 	 
S 	 -58.0046 	 0.589286 	 -19.8768 	 
C 	 -56.9628 	 -0.182457 	 -21.0298 	 
C 	 -57.111 	 0.458174 	 -22.2479 	 
C 	 -57.9783 	 1.59305 	 -22.3124 	 
C 	 -58.6858 	 1.72019 	 -21.1026 	 
H 	 -56.3861 	 0.11391 	 -23 	 
C 	 -58.2695 	 2.27328 	 -23.6354 	 
H 	 -57.3075 	 2.59561 	 -23.9416 	 
H 	 -58.9356 	 3.09506 	 -23.4628 	 
C 	 -58.8306 	 1.41521 	 -24.7351 	 
H 	 -59.7802 	 1.08302 	 -24.2782 	 
H 	 -58.2327 	 0.527176 	 -24.7793 	 
C 	 -59.0469 	 2.15381 	 -26.0829 	 
H 	 -58.082 	 2.38236 	 -26.588 	 
H 	 -59.6895 	 2.99096 	 -25.859 	 
H 	 -59.5838 	 1.62293 	 -26.838 	 
H 	 -61.9007 	 4.94434 	 -18.9831 	 
H 	 -56.2839 	 -1.00448 	 -20.8175 	 
