34

S 	 41.51 	 -32.1485 	 -118.408 	 
C 	 41.5792 	 -30.7731 	 -119.461 	 
C 	 40.7845 	 -30.8533 	 -120.588 	 
C 	 39.9726 	 -32.0601 	 -120.438 	 
C 	 40.2336 	 -32.8545 	 -119.338 	 
H 	 39.3288 	 -32.4852 	 -121.217 	 
C 	 40.6133 	 -29.7873 	 -121.623 	 
H 	 39.5916 	 -29.4534 	 -121.593 	 
H 	 40.5765 	 -30.3498 	 -122.513 	 
C 	 41.7724 	 -28.7408 	 -121.906 	 
H 	 41.4163 	 -27.8035 	 -122.337 	 
H 	 42.1498 	 -28.3352 	 -120.97 	 
C 	 42.9648 	 -29.4577 	 -122.644 	 
H 	 42.6798 	 -29.7138 	 -123.653 	 
H 	 43.86 	 -28.7746 	 -122.683 	 
H 	 43.21 	 -30.2764 	 -122.112 	 
S 	 40.5164 	 -35.5327 	 -118.587 	 
C 	 39.1471 	 -36.6156 	 -118.576 	 
C 	 38.0175 	 -35.9413 	 -118.985 	 
C 	 38.2214 	 -34.508 	 -119.114 	 
C 	 39.5553 	 -34.13 	 -119.062 	 
H 	 37.067 	 -36.4639 	 -119.115 	 
C 	 37.0899 	 -33.5013 	 -119.312 	 
H 	 37.4415 	 -32.4887 	 -119.442 	 
H 	 36.4593 	 -33.5799 	 -118.381 	 
C 	 36.3591 	 -33.7177 	 -120.624 	 
H 	 35.6668 	 -34.5669 	 -120.533 	 
H 	 37.0495 	 -33.9232 	 -121.398 	 
C 	 35.6711 	 -32.4506 	 -121.114 	 
H 	 34.7226 	 -32.3196 	 -120.584 	 
H 	 35.3513 	 -32.629 	 -122.12 	 
H 	 36.1926 	 -31.4616 	 -121.119 	 
H 	 42.1792 	 -29.8564 	 -119.267 	 
H 	 39.1943 	 -37.661 	 -118.383 	 
