34

S 	 -135.223 	 7.49475 	 -4.31057 	 
C 	 -135.071 	 6.90956 	 -2.68914 	 
C 	 -135.286 	 7.90669 	 -1.75966 	 
C 	 -135.508 	 9.23843 	 -2.35308 	 
C 	 -135.374 	 9.23502 	 -3.69223 	 
H 	 -135.792 	 10.0893 	 -1.8092 	 
C 	 -135.53 	 7.57181 	 -0.254702 	 
H 	 -134.869 	 8.29289 	 0.305991 	 
H 	 -135.038 	 6.64667 	 0.00588851 	 
C 	 -136.967 	 7.61848 	 0.186996 	 
H 	 -137.111 	 7.56024 	 1.25191 	 
H 	 -137.305 	 8.67922 	 0.127593 	 
C 	 -137.878 	 6.62736 	 -0.483769 	 
H 	 -137.809 	 6.86316 	 -1.56139 	 
H 	 -137.525 	 5.63623 	 -0.265488 	 
H 	 -138.97 	 6.61192 	 -0.182738 	 
S 	 -136.315 	 10.1229 	 -6.29689 	 
C 	 -136.625 	 11.8444 	 -6.50087 	 
C 	 -135.901 	 12.6031 	 -5.60702 	 
C 	 -135.449 	 11.7801 	 -4.4531 	 
C 	 -135.609 	 10.3965 	 -4.62219 	 
H 	 -135.916 	 13.6418 	 -5.6365 	 
C 	 -134.698 	 12.3949 	 -3.29669 	 
H 	 -134.022 	 13.0028 	 -3.80056 	 
H 	 -134.134 	 11.6496 	 -2.83792 	 
C 	 -135.577 	 13.072 	 -2.18041 	 
H 	 -136.302 	 12.3732 	 -1.72742 	 
H 	 -136.184 	 13.8944 	 -2.61821 	 
C 	 -134.763 	 13.5735 	 -0.961924 	 
H 	 -135.215 	 14.3134 	 -0.258716 	 
H 	 -133.949 	 14.1468 	 -1.39481 	 
H 	 -134.375 	 12.6782 	 -0.431694 	 
H 	 -134.905 	 5.86366 	 -2.36503 	 
H 	 -137.22 	 12.2285 	 -7.34144 	 
