34

S 	 -49.7255 	 22.8606 	 33.5172 	 
C 	 -48.8091 	 21.9161 	 32.3603 	 
C 	 -49.6897 	 20.9727 	 31.6836 	 
C 	 -50.958 	 20.9027 	 32.2774 	 
C 	 -51.1701 	 21.8978 	 33.2139 	 
H 	 -51.7523 	 20.2202 	 32.0223 	 
C 	 -49.2664 	 20.178 	 30.5089 	 
H 	 -49.9466 	 19.347 	 30.2833 	 
H 	 -48.2764 	 19.7409 	 30.8105 	 
C 	 -49.1503 	 20.9345 	 29.1344 	 
H 	 -48.4416 	 21.8114 	 29.3149 	 
H 	 -48.7184 	 20.3194 	 28.4002 	 
C 	 -50.5612 	 21.3509 	 28.7061 	 
H 	 -50.5572 	 21.6164 	 27.6509 	 
H 	 -51.277 	 20.5263 	 28.9054 	 
H 	 -50.795 	 22.3142 	 29.2701 	 
S 	 -52.3503 	 21.7678 	 35.6755 	 
C 	 -54.097 	 21.8642 	 35.8393 	 
C 	 -54.7117 	 22.1695 	 34.6226 	 
C 	 -53.7497 	 22.1496 	 33.5251 	 
C 	 -52.4259 	 22.056 	 33.9484 	 
H 	 -55.8211 	 22.2306 	 34.4909 	 
C 	 -54.233 	 22.4081 	 32.0852 	 
H 	 -53.2704 	 22.5116 	 31.562 	 
H 	 -54.8297 	 23.3078 	 31.9102 	 
C 	 -54.924 	 21.2847 	 31.3772 	 
H 	 -55.7859 	 21.1099 	 31.993 	 
H 	 -54.338 	 20.3619 	 31.3913 	 
C 	 -55.3335 	 21.5792 	 29.9642 	 
H 	 -56.0831 	 20.8332 	 29.6758 	 
H 	 -54.5418 	 21.4934 	 29.2099 	 
H 	 -55.9007 	 22.5662 	 29.966 	 
H 	 -47.7607 	 22.0001 	 32.1496 	 
H 	 -54.6395 	 21.6988 	 36.6938 	 
