34

S 	 -112.208 	 58.4063 	 -16.5418 	 
C 	 -112.042 	 60.085 	 -15.9357 	 
C 	 -112.369 	 61.0041 	 -16.9467 	 
C 	 -112.308 	 60.3924 	 -18.2304 	 
C 	 -112.049 	 59.0413 	 -18.1978 	 
H 	 -112.454 	 60.8956 	 -19.2062 	 
C 	 -112.584 	 62.3782 	 -16.731 	 
H 	 -112.693 	 62.5224 	 -15.6956 	 
H 	 -113.568 	 62.4841 	 -17.1787 	 
C 	 -111.481 	 63.2775 	 -17.2825 	 
H 	 -110.473 	 63.0425 	 -16.8435 	 
H 	 -111.237 	 63.0476 	 -18.3438 	 
C 	 -111.81 	 64.7673 	 -17.07 	 
H 	 -112.091 	 64.9491 	 -16.0531 	 
H 	 -111.181 	 65.5559 	 -17.4663 	 
H 	 -112.736 	 64.8942 	 -17.514 	 
S 	 -113.061 	 56.7617 	 -19.2404 	 
C 	 -112.335 	 56.1312 	 -20.7707 	 
C 	 -111.566 	 57.0515 	 -21.3935 	 
C 	 -111.262 	 58.2083 	 -20.5896 	 
C 	 -111.988 	 58.2136 	 -19.3985 	 
H 	 -111.219 	 56.7845 	 -22.3538 	 
C 	 -110.349 	 59.2864 	 -21.0506 	 
H 	 -109.44 	 58.874 	 -21.4159 	 
H 	 -110.135 	 59.8888 	 -20.1547 	 
C 	 -111.031 	 60.154 	 -22.1626 	 
H 	 -111.845 	 60.7177 	 -21.7616 	 
H 	 -111.404 	 59.4378 	 -22.8395 	 
C 	 -110.019 	 61.0783 	 -22.8776 	 
H 	 -110.45 	 61.6678 	 -23.7425 	 
H 	 -109.09 	 60.5927 	 -23.1672 	 
H 	 -109.708 	 61.83 	 -22.1235 	 
H 	 -112.024 	 60.3542 	 -14.9026 	 
H 	 -112.504 	 55.2416 	 -21.3348 	 
