34

S 	 22.7095 	 0.291318 	 -110.637 	 
C 	 22.1516 	 0.343261 	 -112.329 	 
C 	 22.3817 	 1.57811 	 -112.887 	 
C 	 23.0785 	 2.43963 	 -112.027 	 
C 	 23.3778 	 1.91086 	 -110.746 	 
H 	 23.3373 	 3.46774 	 -112.318 	 
C 	 22.0065 	 1.88777 	 -114.326 	 
H 	 21.9839 	 0.958022 	 -114.77 	 
H 	 22.8357 	 2.50296 	 -114.725 	 
C 	 20.7218 	 2.54029 	 -114.469 	 
H 	 19.7811 	 1.94007 	 -114.297 	 
H 	 20.6689 	 3.33781 	 -113.726 	 
C 	 20.6811 	 3.22574 	 -115.812 	 
H 	 19.7502 	 3.89979 	 -115.882 	 
H 	 21.4009 	 4.09616 	 -115.851 	 
H 	 20.6229 	 2.55973 	 -116.715 	 
S 	 25.2298 	 1.67752 	 -108.795 	 
C 	 25.7974 	 3.04404 	 -107.824 	 
C 	 25.0273 	 4.10954 	 -108.191 	 
C 	 24.0247 	 3.91191 	 -109.146 	 
C 	 24.0076 	 2.589 	 -109.607 	 
H 	 25.1226 	 4.91318 	 -107.562 	 
C 	 23.2772 	 5.07198 	 -109.708 	 
H 	 22.6218 	 5.55657 	 -108.899 	 
H 	 22.6067 	 4.64091 	 -110.488 	 
C 	 24.2394 	 6.0365 	 -110.44 	 
H 	 24.6971 	 5.46071 	 -111.254 	 
H 	 24.943 	 6.45956 	 -109.739 	 
C 	 23.4279 	 7.25308 	 -110.995 	 
H 	 22.602 	 6.86223 	 -111.562 	 
H 	 24.1417 	 7.91931 	 -111.541 	 
H 	 22.9775 	 7.84333 	 -110.197 	 
H 	 21.8284 	 -0.540374 	 -112.869 	 
H 	 26.5343 	 3.03455 	 -107.028 	 
