34

S 	 42.5463 	 -20.5822 	 -112.828 	 
C 	 44.2105 	 -20.8888 	 -113.307 	 
C 	 45.0498 	 -20.1647 	 -112.535 	 
C 	 44.3789 	 -19.4134 	 -111.58 	 
C 	 42.9887 	 -19.4747 	 -111.577 	 
H 	 44.8083 	 -18.7495 	 -110.844 	 
C 	 46.5272 	 -20.1582 	 -112.79 	 
H 	 46.7954 	 -19.096 	 -112.996 	 
H 	 46.6637 	 -20.6902 	 -113.767 	 
C 	 47.3403 	 -20.6477 	 -111.516 	 
H 	 48.4679 	 -20.6962 	 -111.686 	 
H 	 47.2326 	 -19.8887 	 -110.775 	 
C 	 46.9271 	 -22.0465 	 -111.02 	 
H 	 45.8569 	 -22.0986 	 -110.794 	 
H 	 47.1464 	 -22.618 	 -111.9 	 
H 	 47.4672 	 -22.4224 	 -110.119 	 
S 	 41.3408 	 -17.3093 	 -111.282 	 
C 	 40.4262 	 -17.1735 	 -109.783 	 
C 	 40.6542 	 -18.2199 	 -108.942 	 
C 	 41.7365 	 -19.0126 	 -109.382 	 
C 	 42.1041 	 -18.7631 	 -110.674 	 
H 	 40.1169 	 -18.2728 	 -108.02 	 
C 	 42.2739 	 -20.1719 	 -108.605 	 
H 	 42.4571 	 -20.8569 	 -109.446 	 
H 	 41.5025 	 -20.6585 	 -108.023 	 
C 	 43.4673 	 -19.8808 	 -107.771 	 
H 	 43.1584 	 -19.0901 	 -107.064 	 
H 	 44.2226 	 -19.4061 	 -108.413 	 
C 	 44.089 	 -21.1368 	 -107.17 	 
H 	 45.0319 	 -20.8526 	 -106.71 	 
H 	 44.3525 	 -21.868 	 -107.962 	 
H 	 43.4275 	 -21.4928 	 -106.372 	 
H 	 44.3618 	 -21.5586 	 -114.132 	 
H 	 39.7066 	 -16.3871 	 -109.642 	 
