34

S 	 -97.7256 	 14.3914 	 -120.163 	 
C 	 -97.1606 	 14.1533 	 -118.53 	 
C 	 -97.8326 	 14.9162 	 -117.58 	 
C 	 -99.0052 	 15.4191 	 -118.191 	 
C 	 -99.1827 	 15.157 	 -119.516 	 
H 	 -99.8359 	 15.9559 	 -117.634 	 
C 	 -97.4933 	 15.0561 	 -116.14 	 
H 	 -97.8485 	 16.0266 	 -115.754 	 
H 	 -96.3928 	 14.9934 	 -116.004 	 
C 	 -98.0767 	 13.9428 	 -115.294 	 
H 	 -99.1342 	 13.7133 	 -115.367 	 
H 	 -97.6143 	 13.017 	 -115.579 	 
C 	 -97.5991 	 14.1225 	 -113.854 	 
H 	 -97.7416 	 13.2397 	 -113.225 	 
H 	 -96.5437 	 14.2692 	 -113.861 	 
H 	 -98.1018 	 14.8888 	 -113.299 	 
S 	 -99.6244 	 16.4441 	 -121.845 	 
C 	 -101.188 	 16.6225 	 -122.469 	 
C 	 -102.19 	 16.3399 	 -121.569 	 
C 	 -101.634 	 15.6534 	 -120.435 	 
C 	 -100.211 	 15.6117 	 -120.419 	 
H 	 -103.225 	 16.4398 	 -121.743 	 
C 	 -102.543 	 15.0285 	 -119.403 	 
H 	 -102.083 	 14.5378 	 -118.505 	 
H 	 -103.108 	 14.2789 	 -119.809 	 
C 	 -103.542 	 16.0101 	 -118.75 	 
H 	 -104.336 	 15.4027 	 -118.295 	 
H 	 -103.911 	 16.6293 	 -119.563 	 
C 	 -102.978 	 17.0098 	 -117.705 	 
H 	 -102.453 	 17.8515 	 -118.271 	 
H 	 -102.212 	 16.587 	 -117.035 	 
H 	 -103.844 	 17.6013 	 -117.347 	 
H 	 -96.3095 	 13.5619 	 -118.229 	 
H 	 -101.617 	 16.9835 	 -123.434 	 
