34

S 	 -53.5523 	 8.04065 	 -17.3559 	 
C 	 -52.4073 	 6.67652 	 -17.3246 	 
C 	 -51.2992 	 6.82204 	 -18.1345 	 
C 	 -51.3851 	 8.00382 	 -18.9036 	 
C 	 -52.5607 	 8.79052 	 -18.6565 	 
H 	 -50.7529 	 8.35072 	 -19.6685 	 
C 	 -50.1804 	 5.88357 	 -18.3089 	 
H 	 -49.6542 	 5.83245 	 -17.3358 	 
H 	 -49.431 	 6.36043 	 -18.9192 	 
C 	 -50.5133 	 4.48735 	 -18.8735 	 
H 	 -50.8944 	 3.80424 	 -18.1134 	 
H 	 -51.3103 	 4.60789 	 -19.6513 	 
C 	 -49.2907 	 3.86495 	 -19.5353 	 
H 	 -48.797 	 4.60287 	 -20.2098 	 
H 	 -48.6205 	 3.62135 	 -18.6273 	 
H 	 -49.447 	 2.92828 	 -20.0831 	 
S 	 -52.4591 	 10.0674 	 -21.1077 	 
C 	 -53.1727 	 11.6149 	 -21.2703 	 
C 	 -53.9289 	 11.9748 	 -20.1587 	 
C 	 -53.6934 	 11.0831 	 -19.0703 	 
C 	 -52.9381 	 9.98217 	 -19.4335 	 
H 	 -54.5267 	 12.846 	 -20.2131 	 
C 	 -54.4693 	 11.2649 	 -17.682 	 
H 	 -54.4571 	 12.2563 	 -17.304 	 
H 	 -54.0085 	 10.5829 	 -17.0196 	 
C 	 -55.9792 	 10.8646 	 -17.7531 	 
H 	 -56.1366 	 9.89545 	 -18.1657 	 
H 	 -56.5927 	 11.5187 	 -18.3739 	 
C 	 -56.6201 	 10.8576 	 -16.3375 	 
H 	 -57.732 	 10.6176 	 -16.3879 	 
H 	 -56.531 	 11.8196 	 -15.7669 	 
H 	 -56.2241 	 10.0491 	 -15.829 	 
H 	 -52.5547 	 5.78431 	 -16.7493 	 
H 	 -53.027 	 12.3088 	 -22.145 	 
