34

S 	 -105.173 	 19.864 	 -121.944 	 
C 	 -104.771 	 21.1301 	 -120.792 	 
C 	 -104.443 	 20.5957 	 -119.547 	 
C 	 -104.227 	 19.1845 	 -119.653 	 
C 	 -104.674 	 18.5624 	 -120.804 	 
H 	 -104.026 	 18.595 	 -118.818 	 
C 	 -103.998 	 21.2698 	 -118.207 	 
H 	 -103.463 	 22.1335 	 -118.432 	 
H 	 -103.405 	 20.5674 	 -117.699 	 
C 	 -105.206 	 21.7644 	 -117.303 	 
H 	 -105.882 	 20.937 	 -116.949 	 
H 	 -104.709 	 22.1882 	 -116.404 	 
C 	 -106.127 	 22.792 	 -117.908 	 
H 	 -106.677 	 22.336 	 -118.741 	 
H 	 -106.84 	 23.15 	 -117.152 	 
H 	 -105.613 	 23.5716 	 -118.415 	 
S 	 -104.182 	 16.705 	 -122.796 	 
C 	 -104.325 	 15.0167 	 -122.419 	 
C 	 -104.732 	 14.8222 	 -121.093 	 
C 	 -104.893 	 16.001 	 -120.371 	 
C 	 -104.671 	 17.172 	 -121.156 	 
H 	 -104.874 	 13.8798 	 -120.63 	 
C 	 -105.209 	 16.012 	 -118.888 	 
H 	 -106.075 	 15.3782 	 -118.783 	 
H 	 -105.606 	 16.9539 	 -118.571 	 
C 	 -104.203 	 15.5555 	 -117.921 	 
H 	 -103.272 	 16.0453 	 -117.91 	 
H 	 -103.957 	 14.5979 	 -118.335 	 
C 	 -104.804 	 15.3862 	 -116.521 	 
H 	 -105.489 	 16.164 	 -116.292 	 
H 	 -104.088 	 15.1566 	 -115.777 	 
H 	 -105.482 	 14.4695 	 -116.485 	 
H 	 -104.963 	 22.2327 	 -120.934 	 
H 	 -104.13 	 14.1835 	 -123.121 	 
