34

S 	 -112.189 	 57.184 	 -80.6389 	 
C 	 -112.224 	 57.0947 	 -82.3758 	 
C 	 -111.754 	 58.241 	 -82.9349 	 
C 	 -111.146 	 59.158 	 -81.9645 	 
C 	 -111.358 	 58.7245 	 -80.6886 	 
H 	 -110.61 	 60.1033 	 -82.2346 	 
C 	 -111.71 	 58.4368 	 -84.4173 	 
H 	 -111.592 	 57.4413 	 -84.9158 	 
H 	 -110.801 	 58.9388 	 -84.7554 	 
C 	 -112.959 	 59.0183 	 -85.049 	 
H 	 -112.772 	 58.9435 	 -86.1031 	 
H 	 -113.798 	 58.4583 	 -84.6918 	 
C 	 -113.132 	 60.5686 	 -84.7906 	 
H 	 -114.051 	 60.8782 	 -85.2033 	 
H 	 -113.124 	 60.9683 	 -83.7839 	 
H 	 -112.311 	 61.098 	 -85.254 	 
S 	 -110.492 	 58.3514 	 -78.0902 	 
C 	 -109.82 	 59.749 	 -77.1609 	 
C 	 -109.791 	 60.8373 	 -77.9505 	 
C 	 -110.347 	 60.6175 	 -79.2685 	 
C 	 -110.772 	 59.3153 	 -79.5049 	 
H 	 -109.469 	 61.797 	 -77.5873 	 
C 	 -110.572 	 61.8428 	 -80.1342 	 
H 	 -109.82 	 61.6883 	 -80.9875 	 
H 	 -110.089 	 62.6334 	 -79.5183 	 
C 	 -111.958 	 62.2942 	 -80.4665 	 
H 	 -112.451 	 62.6433 	 -79.5524 	 
H 	 -112.626 	 61.4789 	 -80.8304 	 
C 	 -111.942 	 63.4169 	 -81.4425 	 
H 	 -111.492 	 64.3173 	 -80.9714 	 
H 	 -112.873 	 63.6493 	 -82.0365 	 
H 	 -111.273 	 63.155 	 -82.3432 	 
H 	 -112.465 	 56.1271 	 -82.7473 	 
H 	 -109.459 	 59.7639 	 -76.1606 	 
