34

S 	 -125.02 	 30.5035 	 -118.029 	 
C 	 -124.849 	 28.8353 	 -118.555 	 
C 	 -124.125 	 28.0253 	 -117.656 	 
C 	 -123.475 	 28.8634 	 -116.741 	 
C 	 -123.839 	 30.2035 	 -116.814 	 
H 	 -122.804 	 28.5099 	 -115.985 	 
C 	 -123.645 	 26.6407 	 -117.916 	 
H 	 -124.233 	 26.3421 	 -118.775 	 
H 	 -124.097 	 26.0751 	 -117.132 	 
C 	 -122.081 	 26.4138 	 -117.977 	 
H 	 -121.695 	 26.974 	 -117.111 	 
H 	 -121.965 	 25.3506 	 -117.887 	 
C 	 -121.451 	 26.996 	 -119.291 	 
H 	 -122.259 	 27.0615 	 -120.003 	 
H 	 -121.064 	 28.0084 	 -119.09 	 
H 	 -120.644 	 26.4366 	 -119.801 	 
S 	 -122.752 	 32.7663 	 -116.652 	 
C 	 -122.202 	 33.4448 	 -115.221 	 
C 	 -122.389 	 32.5304 	 -114.177 	 
C 	 -122.955 	 31.2643 	 -114.553 	 
C 	 -123.348 	 31.2531 	 -115.863 	 
H 	 -122.02 	 32.8216 	 -113.185 	 
C 	 -123.086 	 30.1702 	 -113.552 	 
H 	 -123.725 	 29.3866 	 -113.976 	 
H 	 -123.659 	 30.54 	 -112.736 	 
C 	 -121.699 	 29.5406 	 -112.957 	 
H 	 -121.438 	 30.188 	 -112.146 	 
H 	 -120.859 	 29.7524 	 -113.628 	 
C 	 -121.816 	 28.0231 	 -112.731 	 
H 	 -122.11 	 27.6155 	 -113.657 	 
H 	 -122.561 	 27.8354 	 -111.974 	 
H 	 -120.848 	 27.6269 	 -112.485 	 
H 	 -125.541 	 28.3111 	 -119.307 	 
H 	 -121.678 	 34.3164 	 -115.139 	 
