34

S 	 -134.045 	 23.604 	 -23.568 	 
C 	 -134.103 	 22.0012 	 -22.8139 	 
C 	 -132.912 	 21.3409 	 -23.0248 	 
C 	 -131.898 	 22.1706 	 -23.6261 	 
C 	 -132.294 	 23.454 	 -23.7828 	 
H 	 -130.92 	 21.8432 	 -23.9222 	 
C 	 -132.56 	 19.9497 	 -22.7275 	 
H 	 -132.015 	 19.914 	 -21.7432 	 
H 	 -131.837 	 19.6334 	 -23.5222 	 
C 	 -133.683 	 18.9382 	 -22.6531 	 
H 	 -134.366 	 19.1091 	 -21.8098 	 
H 	 -134.432 	 19.2666 	 -23.345 	 
C 	 -133.161 	 17.5136 	 -22.9779 	 
H 	 -133.995 	 16.8401 	 -23.0273 	 
H 	 -132.789 	 17.4792 	 -24.0439 	 
H 	 -132.433 	 17.1506 	 -22.2707 	 
S 	 -132.391 	 25.6323 	 -25.4782 	 
C 	 -130.918 	 26.5354 	 -25.7778 	 
C 	 -129.87 	 25.9779 	 -25.1389 	 
C 	 -130.185 	 24.9613 	 -24.2532 	 
C 	 -131.541 	 24.602 	 -24.2742 	 
H 	 -128.835 	 26.3537 	 -25.3382 	 
C 	 -129.139 	 24.3415 	 -23.3375 	 
H 	 -129.517 	 23.4458 	 -22.9134 	 
H 	 -129.05 	 25.0244 	 -22.4929 	 
C 	 -127.7 	 24.1691 	 -23.9299 	 
H 	 -127.132 	 23.5795 	 -23.2163 	 
H 	 -127.226 	 25.1676 	 -23.9633 	 
C 	 -127.668 	 23.2753 	 -25.1589 	 
H 	 -128.543 	 23.5385 	 -25.7981 	 
H 	 -127.828 	 22.3119 	 -24.7477 	 
H 	 -126.691 	 23.1978 	 -25.7136 	 
H 	 -134.982 	 21.517 	 -22.3945 	 
H 	 -130.889 	 27.2295 	 -26.5927 	 
