34

S 	 -120.165 	 61.8953 	 -37.914 	 
C 	 -120.84 	 63.4951 	 -38.1762 	 
C 	 -119.844 	 64.3564 	 -38.4888 	 
C 	 -118.613 	 63.7367 	 -38.7226 	 
C 	 -118.584 	 62.3796 	 -38.5651 	 
H 	 -117.644 	 64.2468 	 -38.887 	 
C 	 -119.895 	 65.9075 	 -38.3802 	 
H 	 -118.977 	 66.0935 	 -37.7996 	 
H 	 -120.84 	 66.1481 	 -37.8579 	 
C 	 -119.698 	 66.6716 	 -39.7142 	 
H 	 -119.594 	 67.7661 	 -39.5147 	 
H 	 -118.749 	 66.2608 	 -40.1397 	 
C 	 -120.96 	 66.4083 	 -40.6131 	 
H 	 -121.037 	 65.3507 	 -40.7645 	 
H 	 -121.863 	 66.7078 	 -40.0571 	 
H 	 -120.896 	 66.9168 	 -41.5711 	 
S 	 -117.098 	 60.391 	 -39.4486 	 
C 	 -115.984 	 59.5015 	 -38.3419 	 
C 	 -116.013 	 60.0768 	 -37.106 	 
C 	 -116.933 	 61.2062 	 -37.0173 	 
C 	 -117.525 	 61.4916 	 -38.2151 	 
H 	 -115.438 	 59.5465 	 -36.3573 	 
C 	 -117.358 	 61.8752 	 -35.7522 	 
H 	 -117.073 	 61.2466 	 -34.9358 	 
H 	 -118.487 	 62.0193 	 -35.6605 	 
C 	 -116.854 	 63.3303 	 -35.6227 	 
H 	 -117.046 	 63.9431 	 -36.5057 	 
H 	 -115.772 	 63.3601 	 -35.5624 	 
C 	 -117.432 	 64.13 	 -34.4285 	 
H 	 -117.266 	 65.2046 	 -34.5288 	 
H 	 -117.079 	 63.7807 	 -33.4531 	 
H 	 -118.5 	 64.2238 	 -34.2327 	 
H 	 -121.808 	 63.7976 	 -38.0002 	 
H 	 -115.595 	 58.4341 	 -38.5054 	 
