34

S 	 1.92169 	 -17.947 	 -102.122 	 
C 	 3.51128 	 -18.4997 	 -102.598 	 
C 	 4.08257 	 -17.6314 	 -103.539 	 
C 	 3.19322 	 -16.5335 	 -103.725 	 
C 	 1.93824 	 -16.6856 	 -103.246 	 
H 	 3.48756 	 -15.7424 	 -104.387 	 
C 	 5.50203 	 -17.6032 	 -104.074 	 
H 	 5.71097 	 -16.5864 	 -104.439 	 
H 	 5.54823 	 -18.1851 	 -104.963 	 
C 	 6.68062 	 -18.0721 	 -103.113 	 
H 	 6.5824 	 -17.4701 	 -102.2 	 
H 	 6.61614 	 -19.1445 	 -102.836 	 
C 	 8.01721 	 -18.0413 	 -103.83 	 
H 	 8.89297 	 -18.0711 	 -103.203 	 
H 	 8.23231 	 -18.8749 	 -104.523 	 
H 	 8.04311 	 -17.1794 	 -104.492 	 
S 	 -0.0101245 	 -15.5921 	 -104.817 	 
C 	 -0.871245 	 -14.215 	 -104.242 	 
C 	 -0.529928 	 -13.8533 	 -103.007 	 
C 	 0.506891 	 -14.7024 	 -102.483 	 
C 	 0.882907 	 -15.6837 	 -103.345 	 
H 	 -1.01529 	 -13.0742 	 -102.61 	 
C 	 1.10078 	 -14.5347 	 -101.146 	 
H 	 1.44089 	 -15.5306 	 -100.776 	 
H 	 0.255455 	 -14.3867 	 -100.539 	 
C 	 2.03361 	 -13.32 	 -100.908 	 
H 	 1.46981 	 -12.4151 	 -101.14 	 
H 	 2.94571 	 -13.536 	 -101.499 	 
C 	 2.59179 	 -13.303 	 -99.4984 	 
H 	 3.37698 	 -12.547 	 -99.3922 	 
H 	 2.92396 	 -14.3525 	 -99.208 	 
H 	 1.76867 	 -13.2244 	 -98.777 	 
H 	 4.16666 	 -19.1767 	 -102.064 	 
H 	 -1.53261 	 -13.5976 	 -104.854 	 
