34

S 	 -121.177 	 22.1181 	 -26.9078 	 
C 	 -119.895 	 21.5614 	 -27.997 	 
C 	 -118.785 	 21.148 	 -27.2815 	 
C 	 -118.931 	 21.4378 	 -25.929 	 
C 	 -120.143 	 22.0146 	 -25.5543 	 
H 	 -118.238 	 21.2665 	 -25.1513 	 
C 	 -117.488 	 20.6091 	 -27.9007 	 
H 	 -117.772 	 20.4321 	 -28.8525 	 
H 	 -117.287 	 19.7117 	 -27.3631 	 
C 	 -116.367 	 21.5708 	 -27.8759 	 
H 	 -116.56 	 22.4801 	 -28.4784 	 
H 	 -116.249 	 21.9129 	 -26.8451 	 
C 	 -115.012 	 21.1027 	 -28.2744 	 
H 	 -114.956 	 20.7168 	 -29.2958 	 
H 	 -114.229 	 21.9057 	 -28.1671 	 
H 	 -114.624 	 20.2554 	 -27.645 	 
S 	 -120.57 	 21.2183 	 -22.9045 	 
C 	 -120.962 	 22.3347 	 -21.6417 	 
C 	 -121.273 	 23.5535 	 -22.1804 	 
C 	 -120.991 	 23.5894 	 -23.6258 	 
C 	 -120.546 	 22.3493 	 -24.1518 	 
H 	 -121.497 	 24.3764 	 -21.5056 	 
C 	 -121.02 	 24.9513 	 -24.2982 	 
H 	 -120.093 	 25.1179 	 -24.9295 	 
H 	 -120.642 	 25.6623 	 -23.5172 	 
C 	 -122.406 	 25.2606 	 -24.9033 	 
H 	 -123.101 	 25.2338 	 -24.135 	 
H 	 -122.793 	 24.5899 	 -25.693 	 
C 	 -122.409 	 26.6466 	 -25.5381 	 
H 	 -121.97 	 27.3911 	 -24.8568 	 
H 	 -123.404 	 26.8651 	 -25.7908 	 
H 	 -121.775 	 26.726 	 -26.4259 	 
H 	 -120.019 	 21.5111 	 -29.1287 	 
H 	 -120.902 	 22.1689 	 -20.5721 	 
