34

S 	 -114.204 	 60.3317 	 -29.0062 	 
C 	 -113.501 	 60.4652 	 -27.3372 	 
C 	 -114.09 	 61.5074 	 -26.6229 	 
C 	 -115.022 	 62.2031 	 -27.472 	 
C 	 -115.224 	 61.6956 	 -28.7525 	 
H 	 -115.718 	 62.9773 	 -27.2027 	 
C 	 -113.786 	 61.9184 	 -25.2143 	 
H 	 -114.446 	 62.8035 	 -25.0564 	 
H 	 -112.741 	 62.2264 	 -25.2744 	 
C 	 -113.999 	 60.9383 	 -24.0981 	 
H 	 -114.987 	 60.536 	 -24.0899 	 
H 	 -113.296 	 60.0812 	 -24.1671 	 
C 	 -113.735 	 61.5858 	 -22.7596 	 
H 	 -114.491 	 62.3535 	 -22.31 	 
H 	 -113.731 	 60.7562 	 -22.0276 	 
H 	 -112.696 	 61.8392 	 -22.8447 	 
S 	 -116.555 	 63.97 	 -29.8937 	 
C 	 -117.931 	 63.6639 	 -30.9087 	 
C 	 -118.024 	 62.3674 	 -31.2299 	 
C 	 -117.115 	 61.5235 	 -30.5432 	 
C 	 -116.243 	 62.1862 	 -29.7235 	 
H 	 -118.783 	 62.1328 	 -31.9269 	 
C 	 -117.204 	 60.0061 	 -30.6638 	 
H 	 -116.885 	 59.4987 	 -29.738 	 
H 	 -116.503 	 59.7122 	 -31.489 	 
C 	 -118.632 	 59.4389 	 -30.9615 	 
H 	 -118.626 	 58.345 	 -31.0778 	 
H 	 -118.989 	 59.8212 	 -31.97 	 
C 	 -119.766 	 59.8567 	 -29.8907 	 
H 	 -119.441 	 59.5652 	 -28.8767 	 
H 	 -120.765 	 59.4521 	 -30.1275 	 
H 	 -119.838 	 60.9111 	 -30.0471 	 
H 	 -112.782 	 59.8392 	 -26.8614 	 
H 	 -118.468 	 64.4342 	 -31.4809 	 
