34

S 	 -112.342 	 33.9953 	 -117.478 	 
C 	 -111.399 	 32.6611 	 -118.095 	 
C 	 -111.886 	 32.2679 	 -119.321 	 
C 	 -113.092 	 32.9423 	 -119.727 	 
C 	 -113.458 	 33.99 	 -118.864 	 
H 	 -113.684 	 32.8271 	 -120.658 	 
C 	 -111.315 	 31.0379 	 -120.068 	 
H 	 -110.567 	 30.5689 	 -119.446 	 
H 	 -110.89 	 31.4247 	 -120.977 	 
C 	 -112.444 	 30.077 	 -120.576 	 
H 	 -112.944 	 29.8 	 -119.601 	 
H 	 -113.129 	 30.6269 	 -121.273 	 
C 	 -111.752 	 28.8425 	 -121.253 	 
H 	 -112.387 	 28.0308 	 -121.528 	 
H 	 -111.279 	 29.1506 	 -122.205 	 
H 	 -110.806 	 28.4557 	 -120.713 	 
S 	 -114.146 	 36.5985 	 -119.504 	 
C 	 -115.742 	 37.1597 	 -119.564 	 
C 	 -116.606 	 36.1226 	 -119.278 	 
C 	 -115.937 	 34.8764 	 -118.982 	 
C 	 -114.542 	 34.9598 	 -119.029 	 
H 	 -117.674 	 36.2688 	 -119.372 	 
C 	 -116.771 	 33.6303 	 -118.664 	 
H 	 -117.724 	 33.9196 	 -118.267 	 
H 	 -116.523 	 33.1487 	 -117.703 	 
C 	 -116.818 	 32.6174 	 -119.754 	 
H 	 -117.381 	 31.7782 	 -119.44 	 
H 	 -115.808 	 32.1789 	 -119.838 	 
C 	 -117.438 	 33.1375 	 -121.028 	 
H 	 -118.445 	 33.3101 	 -120.86 	 
H 	 -117.446 	 32.4609 	 -121.834 	 
H 	 -117.028 	 34.1563 	 -121.391 	 
H 	 -110.564 	 32.151 	 -117.561 	 
H 	 -116.076 	 38.1933 	 -119.629 	 
