34

S 	 -22.4656 	 -35.3877 	 -96.3271 	 
C 	 -20.9782 	 -36.1987 	 -95.8744 	 
C 	 -19.9947 	 -35.1695 	 -95.6852 	 
C 	 -20.3849 	 -33.8219 	 -95.9693 	 
C 	 -21.7698 	 -33.6813 	 -96.0978 	 
H 	 -19.8214 	 -32.8448 	 -96.0936 	 
C 	 -18.5406 	 -35.4862 	 -95.296 	 
H 	 -18.4089 	 -36.5066 	 -95.402 	 
H 	 -18.3123 	 -35.1694 	 -94.3291 	 
C 	 -17.502 	 -34.7135 	 -96.0599 	 
H 	 -17.6187 	 -34.7876 	 -97.1219 	 
H 	 -17.7009 	 -33.6735 	 -95.7534 	 
C 	 -16.0539 	 -35.0601 	 -95.7766 	 
H 	 -15.4698 	 -34.664 	 -96.5806 	 
H 	 -15.6898 	 -34.7771 	 -94.7792 	 
H 	 -15.9371 	 -36.1327 	 -95.7738 	 
S 	 -23.0175 	 -32.4833 	 -98.2853 	 
C 	 -23.2958 	 -30.7593 	 -98.2991 	 
C 	 -22.8545 	 -30.169 	 -97.1241 	 
C 	 -22.4313 	 -31.1381 	 -96.1843 	 
C 	 -22.4659 	 -32.4789 	 -96.5905 	 
H 	 -22.9878 	 -29.0822 	 -97.0835 	 
C 	 -21.8605 	 -30.6259 	 -94.8744 	 
H 	 -21.7667 	 -31.4843 	 -94.1525 	 
H 	 -22.6553 	 -30.0325 	 -94.4989 	 
C 	 -20.616 	 -29.8419 	 -95.0732 	 
H 	 -20.7782 	 -29.0751 	 -95.849 	 
H 	 -19.9712 	 -30.586 	 -95.5884 	 
C 	 -19.9907 	 -29.3161 	 -93.7688 	 
H 	 -19.0768 	 -28.7181 	 -93.7961 	 
H 	 -19.783 	 -30.1481 	 -93.1732 	 
H 	 -20.6905 	 -28.6222 	 -93.1601 	 
H 	 -20.8964 	 -37.1805 	 -95.4918 	 
H 	 -23.7625 	 -30.2484 	 -99.068 	 
