34

S 	 -48.4441 	 15.6092 	 22.7424 	 
C 	 -50.1687 	 15.1658 	 23.0817 	 
C 	 -50.8517 	 14.832 	 21.9484 	 
C 	 -50.0231 	 15.0062 	 20.7746 	 
C 	 -48.6867 	 15.3082 	 21.035 	 
H 	 -50.3433 	 14.9231 	 19.7485 	 
C 	 -52.3028 	 14.5326 	 21.8996 	 
H 	 -52.6375 	 14.5643 	 20.8573 	 
H 	 -52.9201 	 15.2565 	 22.4151 	 
C 	 -52.7412 	 13.1397 	 22.357 	 
H 	 -52.3119 	 12.4023 	 21.7756 	 
H 	 -52.1996 	 13.0661 	 23.3136 	 
C 	 -54.2429 	 12.9729 	 22.5164 	 
H 	 -54.7564 	 12.8949 	 21.549 	 
H 	 -54.5687 	 12.0661 	 23.0572 	 
H 	 -54.5774 	 13.8359 	 23.096 	 
S 	 -47.0686 	 14.2697 	 19.0725 	 
C 	 -45.9134 	 15.3523 	 18.2809 	 
C 	 -45.999 	 16.6278 	 18.733 	 
C 	 -47.0605 	 16.8066 	 19.6313 	 
C 	 -47.6771 	 15.6126 	 20.0624 	 
H 	 -45.3349 	 17.4032 	 18.4431 	 
C 	 -47.3897 	 18.1517 	 20.2383 	 
H 	 -48.5172 	 18.3604 	 20.0189 	 
H 	 -47.0389 	 18.8858 	 19.5174 	 
C 	 -47.0195 	 18.5537 	 21.7131 	 
H 	 -47.7135 	 17.9618 	 22.3548 	 
H 	 -47.0174 	 19.6134 	 22.1347 	 
C 	 -45.6478 	 18.1436 	 22.2478 	 
H 	 -44.9038 	 18.9121 	 22.1857 	 
H 	 -45.4036 	 17.2901 	 21.653 	 
H 	 -45.5961 	 17.8413 	 23.3325 	 
H 	 -50.6759 	 15.3942 	 23.9737 	 
H 	 -45.1555 	 15.0784 	 17.5049 	 
