34

S 	 -97.3659 	 10.0729 	 -114.499 	 
C 	 -97.711 	 11.7509 	 -114.346 	 
C 	 -96.6344 	 12.4538 	 -114.899 	 
C 	 -95.8847 	 11.6913 	 -115.865 	 
C 	 -96.235 	 10.3603 	 -115.813 	 
H 	 -95.1666 	 12.174 	 -116.557 	 
C 	 -96.4329 	 13.9547 	 -114.756 	 
H 	 -97.4416 	 14.4099 	 -114.917 	 
H 	 -95.7276 	 14.3439 	 -115.431 	 
C 	 -95.8787 	 14.2532 	 -113.318 	 
H 	 -96.1067 	 15.2554 	 -113.086 	 
H 	 -96.4761 	 13.728 	 -112.599 	 
C 	 -94.3722 	 14.0454 	 -113.127 	 
H 	 -93.8188 	 14.6921 	 -113.776 	 
H 	 -93.997 	 14.0228 	 -112.149 	 
H 	 -94.1419 	 13.0362 	 -113.543 	 
S 	 -95.1706 	 7.92395 	 -115.539 	 
C 	 -94.4546 	 7.14288 	 -116.927 	 
C 	 -94.5006 	 7.94206 	 -118.065 	 
C 	 -95.1699 	 9.15275 	 -117.808 	 
C 	 -95.5984 	 9.23927 	 -116.477 	 
H 	 -94.0916 	 7.56933 	 -118.904 	 
C 	 -95.3017 	 10.1928 	 -118.894 	 
H 	 -94.3925 	 10.2893 	 -119.443 	 
H 	 -95.5693 	 11.2036 	 -118.547 	 
C 	 -96.4313 	 9.94251 	 -119.885 	 
H 	 -97.4189 	 10.1111 	 -119.459 	 
H 	 -96.3278 	 8.94938 	 -120.232 	 
C 	 -96.2602 	 10.8753 	 -121.112 	 
H 	 -97.0802 	 10.6617 	 -121.872 	 
H 	 -95.2858 	 10.9087 	 -121.6 	 
H 	 -96.336 	 11.9346 	 -120.79 	 
H 	 -98.3886 	 12.1788 	 -113.658 	 
H 	 -93.9117 	 6.2317 	 -116.833 	 
