34

S 	 -116.849 	 38.1149 	 -120.697 	 
C 	 -116.57 	 37.7984 	 -122.474 	 
C 	 -117.728 	 37.5251 	 -123.11 	 
C 	 -118.914 	 37.6654 	 -122.312 	 
C 	 -118.566 	 37.9427 	 -120.968 	 
H 	 -119.942 	 37.5647 	 -122.651 	 
C 	 -117.82 	 36.9138 	 -124.44 	 
H 	 -117.271 	 37.4626 	 -125.229 	 
H 	 -118.881 	 36.8079 	 -124.653 	 
C 	 -117.334 	 35.4792 	 -124.485 	 
H 	 -117.275 	 35.0811 	 -125.517 	 
H 	 -116.26 	 35.5666 	 -124.201 	 
C 	 -118.103 	 34.5242 	 -123.618 	 
H 	 -117.713 	 33.54 	 -123.645 	 
H 	 -118.083 	 34.8141 	 -122.599 	 
H 	 -119.109 	 34.4299 	 -123.966 	 
S 	 -120.908 	 39.0383 	 -120.28 	 
C 	 -121.76 	 38.5069 	 -118.849 	 
C 	 -120.935 	 37.7079 	 -118.09 	 
C 	 -119.613 	 37.4901 	 -118.614 	 
C 	 -119.553 	 37.9997 	 -119.914 	 
H 	 -121.195 	 37.1763 	 -117.22 	 
C 	 -118.532 	 36.7127 	 -117.818 	 
H 	 -118.81 	 36.8746 	 -116.78 	 
H 	 -117.49 	 37.0585 	 -118.047 	 
C 	 -118.495 	 35.1681 	 -118.038 	 
H 	 -117.863 	 34.7025 	 -117.327 	 
H 	 -118.056 	 34.9236 	 -119.028 	 
C 	 -119.844 	 34.5241 	 -118.084 	 
H 	 -120.546 	 35.059 	 -118.769 	 
H 	 -120.337 	 34.567 	 -117.189 	 
H 	 -119.836 	 33.5327 	 -118.455 	 
H 	 -115.594 	 37.7234 	 -122.878 	 
H 	 -122.563 	 39.0077 	 -118.445 	 
