34

S 	 -12.1708 	 -30.8759 	 -105.684 	 
C 	 -12.3561 	 -30.1394 	 -104.028 	 
C 	 -13.5814 	 -30.5256 	 -103.455 	 
C 	 -14.3268 	 -31.4467 	 -104.256 	 
C 	 -13.6626 	 -31.887 	 -105.42 	 
H 	 -15.2284 	 -31.9136 	 -103.928 	 
C 	 -14.0937 	 -30.1247 	 -102.113 	 
H 	 -15.146 	 -30.3226 	 -102.165 	 
H 	 -14.083 	 -29.0357 	 -102.049 	 
C 	 -13.487 	 -30.7559 	 -100.912 	 
H 	 -13.932 	 -30.4307 	 -99.9895 	 
H 	 -13.7818 	 -31.764 	 -100.935 	 
C 	 -11.9462 	 -30.7242 	 -100.705 	 
H 	 -11.6859 	 -31.1039 	 -99.6739 	 
H 	 -11.2892 	 -31.0921 	 -101.461 	 
H 	 -11.7086 	 -29.6897 	 -100.733 	 
S 	 -15.7002 	 -32.812 	 -106.897 	 
C 	 -15.7595 	 -34.5376 	 -107.374 	 
C 	 -14.4641 	 -35.0896 	 -107.322 	 
C 	 -13.4928 	 -34.2079 	 -106.721 	 
C 	 -14.1128 	 -32.9771 	 -106.319 	 
H 	 -14.2933 	 -36.0572 	 -107.708 	 
C 	 -12.0374 	 -34.5653 	 -106.556 	 
H 	 -11.9505 	 -35.544 	 -105.999 	 
H 	 -11.5842 	 -33.8027 	 -105.855 	 
C 	 -11.2913 	 -34.6023 	 -107.864 	 
H 	 -11.7433 	 -35.2492 	 -108.582 	 
H 	 -10.3029 	 -35.0939 	 -107.722 	 
C 	 -11.0549 	 -33.1557 	 -108.411 	 
H 	 -11.9528 	 -32.7868 	 -108.923 	 
H 	 -10.2712 	 -33.2245 	 -109.168 	 
H 	 -10.7687 	 -32.3612 	 -107.718 	 
H 	 -11.805 	 -29.3643 	 -103.544 	 
H 	 -16.5637 	 -35.0212 	 -107.814 	 
