34

S 	 -103.162 	 20.0724 	 -115.757 	 
C 	 -102.816 	 18.4097 	 -116.136 	 
C 	 -103.95 	 17.6664 	 -116.352 	 
C 	 -105.083 	 18.5441 	 -116.411 	 
C 	 -104.832 	 19.8255 	 -116.059 	 
H 	 -106.08 	 18.2225 	 -116.618 	 
C 	 -104.191 	 16.1553 	 -116.624 	 
H 	 -103.833 	 15.9189 	 -117.582 	 
H 	 -105.308 	 16.0579 	 -116.739 	 
C 	 -103.611 	 15.238 	 -115.561 	 
H 	 -103.707 	 14.2234 	 -115.957 	 
H 	 -102.543 	 15.516 	 -115.511 	 
C 	 -104.257 	 15.2378 	 -114.199 	 
H 	 -104.689 	 14.2203 	 -113.941 	 
H 	 -103.491 	 15.3329 	 -113.47 	 
H 	 -105.038 	 16.026 	 -113.945 	 
S 	 -105.662 	 21.7583 	 -114.41 	 
C 	 -107.146 	 22.6333 	 -114.76 	 
C 	 -107.552 	 22.4539 	 -116.07 	 
C 	 -106.724 	 21.5492 	 -116.75 	 
C 	 -105.779 	 20.931 	 -115.977 	 
H 	 -108.383 	 22.9888 	 -116.462 	 
C 	 -106.995 	 21.1317 	 -118.176 	 
H 	 -107.665 	 21.8175 	 -118.673 	 
H 	 -107.801 	 20.2882 	 -118.139 	 
C 	 -105.665 	 20.7994 	 -119.005 	 
H 	 -105.17 	 19.99 	 -118.524 	 
H 	 -105.116 	 21.6732 	 -118.828 	 
C 	 -105.914 	 20.3836 	 -120.476 	 
H 	 -106.611 	 21.0466 	 -120.997 	 
H 	 -106.44 	 19.4071 	 -120.488 	 
H 	 -104.936 	 20.3292 	 -120.962 	 
H 	 -101.885 	 17.932 	 -115.958 	 
H 	 -107.683 	 23.3568 	 -114.183 	 
