34

S 	 -108.337 	 50.5009 	 -69.9806 	 
C 	 -108.839 	 49.7664 	 -71.4374 	 
C 	 -107.792 	 49.8131 	 -72.3775 	 
C 	 -106.563 	 50.29 	 -71.8268 	 
C 	 -106.675 	 50.6568 	 -70.5457 	 
H 	 -105.644 	 50.3384 	 -72.3944 	 
C 	 -107.891 	 49.2267 	 -73.8023 	 
H 	 -108.42 	 48.3197 	 -73.7708 	 
H 	 -106.875 	 49.0146 	 -74.0324 	 
C 	 -108.427 	 50.0315 	 -75.0063 	 
H 	 -109.35 	 50.5131 	 -74.7666 	 
H 	 -107.768 	 50.8958 	 -75.3523 	 
C 	 -108.764 	 49.1679 	 -76.2144 	 
H 	 -109.372 	 48.3615 	 -75.8309 	 
H 	 -109.239 	 49.7963 	 -76.949 	 
H 	 -107.953 	 48.7151 	 -76.7292 	 
S 	 -105.495 	 50.1104 	 -68.0749 	 
C 	 -104.012 	 51.02 	 -67.6171 	 
C 	 -103.742 	 52.0449 	 -68.4908 	 
C 	 -104.694 	 52.071 	 -69.5864 	 
C 	 -105.628 	 51.035 	 -69.5638 	 
H 	 -102.892 	 52.6427 	 -68.2108 	 
C 	 -104.551 	 53.1097 	 -70.7019 	 
H 	 -105.047 	 53.9539 	 -70.2886 	 
H 	 -105.211 	 52.7891 	 -71.511 	 
C 	 -103.109 	 53.3703 	 -71.1678 	 
H 	 -102.691 	 52.4334 	 -71.4484 	 
H 	 -102.538 	 53.5859 	 -70.2395 	 
C 	 -102.866 	 54.3759 	 -72.2059 	 
H 	 -103.217 	 53.9824 	 -73.1392 	 
H 	 -101.764 	 54.5718 	 -72.4953 	 
H 	 -103.254 	 55.343 	 -71.939 	 
H 	 -109.834 	 49.356 	 -71.5273 	 
H 	 -103.386 	 50.6009 	 -66.9078 	 
