34

S 	 26.3173 	 -8.55503 	 -120.687 	 
C 	 26.2458 	 -8.28273 	 -122.483 	 
C 	 27.3494 	 -7.57164 	 -122.886 	 
C 	 28.2712 	 -7.31225 	 -121.785 	 
C 	 27.9234 	 -7.83807 	 -120.598 	 
H 	 29.2144 	 -6.73396 	 -121.931 	 
C 	 27.7013 	 -7.05809 	 -124.327 	 
H 	 26.9726 	 -7.37048 	 -124.935 	 
H 	 28.4676 	 -7.6566 	 -124.796 	 
C 	 28.0763 	 -5.59025 	 -124.532 	 
H 	 29.0856 	 -5.43587 	 -124.267 	 
H 	 28.0991 	 -5.37683 	 -125.548 	 
C 	 27.1456 	 -4.62937 	 -123.81 	 
H 	 27.1708 	 -4.77874 	 -122.714 	 
H 	 27.5201 	 -3.63431 	 -124.022 	 
H 	 26.0818 	 -4.61989 	 -124.123 	 
S 	 29.0627 	 -6.36074 	 -118.531 	 
C 	 29.6891 	 -7.20373 	 -117.185 	 
C 	 29.8224 	 -8.55519 	 -117.444 	 
C 	 29.1854 	 -8.97951 	 -118.637 	 
C 	 28.6931 	 -7.89492 	 -119.387 	 
H 	 30.3504 	 -9.14666 	 -116.685 	 
C 	 29.1874 	 -10.409 	 -119.103 	 
H 	 30.2704 	 -10.7709 	 -119.101 	 
H 	 28.9293 	 -10.502 	 -120.115 	 
C 	 28.2559 	 -11.3394 	 -118.316 	 
H 	 27.3042 	 -10.785 	 -118.123 	 
H 	 28.6817 	 -11.5185 	 -117.312 	 
C 	 27.9047 	 -12.6516 	 -118.999 	 
H 	 26.9616 	 -12.9684 	 -118.566 	 
H 	 28.5598 	 -13.4582 	 -118.677 	 
H 	 27.6105 	 -12.5205 	 -120.078 	 
H 	 25.5245 	 -8.66779 	 -123.202 	 
H 	 30.0085 	 -6.77409 	 -116.264 	 
