34

S 	 -109.992 	 61.484 	 -7.89846 	 
C 	 -108.933 	 62.1321 	 -6.67595 	 
C 	 -109.627 	 62.7901 	 -5.69086 	 
C 	 -111.035 	 62.8051 	 -5.94607 	 
C 	 -111.426 	 62.1871 	 -7.11243 	 
H 	 -111.798 	 63.2105 	 -5.35323 	 
C 	 -109.046 	 63.4032 	 -4.52233 	 
H 	 -108.088 	 63.7409 	 -4.92549 	 
H 	 -108.873 	 62.5693 	 -3.79061 	 
C 	 -109.675 	 64.475 	 -3.77683 	 
H 	 -109.733 	 65.3114 	 -4.44934 	 
H 	 -110.681 	 64.2926 	 -3.46858 	 
C 	 -108.916 	 64.8341 	 -2.48993 	 
H 	 -108.707 	 64.0435 	 -1.74995 	 
H 	 -107.921 	 65.1678 	 -2.69582 	 
H 	 -109.338 	 65.6819 	 -1.94182 	 
S 	 -112.729 	 61.3674 	 -9.43399 	 
C 	 -114.382 	 61.6973 	 -9.6804 	 
C 	 -115.056 	 62.0122 	 -8.44843 	 
C 	 -114.133 	 61.9819 	 -7.37991 	 
C 	 -112.783 	 61.9446 	 -7.75169 	 
H 	 -116.092 	 62.2013 	 -8.43797 	 
C 	 -114.549 	 62.3159 	 -5.89937 	 
H 	 -115.576 	 62.6332 	 -5.89493 	 
H 	 -113.961 	 63.2784 	 -5.81278 	 
C 	 -114.375 	 61.2124 	 -4.93142 	 
H 	 -113.342 	 60.8833 	 -5.11491 	 
H 	 -115.036 	 60.395 	 -5.23485 	 
C 	 -114.573 	 61.6226 	 -3.5093 	 
H 	 -115.598 	 61.9128 	 -3.3368 	 
H 	 -113.913 	 62.5432 	 -3.34114 	 
H 	 -114.342 	 60.7749 	 -2.8189 	 
H 	 -107.89 	 61.9962 	 -6.77977 	 
H 	 -114.936 	 61.7293 	 -10.6515 	 
