34

S 	 18.3553 	 -15.0184 	 -122.755 	 
C 	 16.8061 	 -15.1761 	 -123.711 	 
C 	 17.0486 	 -14.9596 	 -125.052 	 
C 	 18.4397 	 -14.7015 	 -125.27 	 
C 	 19.3207 	 -14.8682 	 -124.206 	 
H 	 18.8041 	 -14.4355 	 -126.257 	 
C 	 16.0201 	 -14.7091 	 -126.114 	 
H 	 15.8531 	 -13.6851 	 -126.346 	 
H 	 15.1308 	 -15.1333 	 -125.691 	 
C 	 16.2758 	 -15.3506 	 -127.49 	 
H 	 17.1867 	 -14.9433 	 -127.973 	 
H 	 16.4688 	 -16.4579 	 -127.357 	 
C 	 15.0795 	 -15.1849 	 -128.401 	 
H 	 14.2396 	 -15.2134 	 -127.729 	 
H 	 15.0313 	 -14.1707 	 -128.804 	 
H 	 15.0698 	 -15.8928 	 -129.232 	 
S 	 21.7119 	 -13.7946 	 -125.203 	 
C 	 23.1379 	 -13.7811 	 -124.243 	 
C 	 23.0686 	 -14.8582 	 -123.399 	 
C 	 21.7651 	 -15.4339 	 -123.361 	 
C 	 20.7902 	 -14.7688 	 -124.085 	 
H 	 24.001 	 -15.176 	 -122.88 	 
C 	 21.5334 	 -16.657 	 -122.456 	 
H 	 20.5272 	 -16.9363 	 -122.861 	 
H 	 21.5736 	 -16.328 	 -121.456 	 
C 	 22.4612 	 -17.7745 	 -122.627 	 
H 	 23.4859 	 -17.48 	 -122.416 	 
H 	 22.6254 	 -18.0242 	 -123.671 	 
C 	 21.9308 	 -18.9595 	 -121.752 	 
H 	 21.9822 	 -18.8608 	 -120.68 	 
H 	 22.6295 	 -19.7782 	 -121.857 	 
H 	 21.0111 	 -19.2918 	 -122.225 	 
H 	 15.8386 	 -15.4493 	 -123.295 	 
H 	 24.1637 	 -13.4077 	 -124.454 	 
