34

S 	 -106.75 	 62.4242 	 -11.624 	 
C 	 -105.993 	 63.8223 	 -12.3442 	 
C 	 -105.1 	 64.3971 	 -11.4578 	 
C 	 -105.031 	 63.7092 	 -10.1694 	 
C 	 -105.917 	 62.6378 	 -10.0572 	 
H 	 -104.359 	 63.9797 	 -9.37232 	 
C 	 -104.315 	 65.6307 	 -11.6976 	 
H 	 -104.541 	 65.9938 	 -12.6928 	 
H 	 -103.321 	 65.1625 	 -11.8076 	 
C 	 -104.406 	 66.8726 	 -10.6581 	 
H 	 -105.364 	 67.3965 	 -10.6361 	 
H 	 -104.266 	 66.6412 	 -9.63014 	 
C 	 -103.314 	 67.8875 	 -10.9588 	 
H 	 -103.351 	 68.7835 	 -10.3077 	 
H 	 -102.411 	 67.4021 	 -10.6427 	 
H 	 -103.277 	 68.2805 	 -11.9515 	 
S 	 -105.771 	 59.969 	 -9.18069 	 
C 	 -106.06 	 59.6713 	 -7.51858 	 
C 	 -106.267 	 60.8413 	 -6.78475 	 
C 	 -106.235 	 61.9986 	 -7.5703 	 
C 	 -106.056 	 61.7383 	 -8.91319 	 
H 	 -106.508 	 60.8708 	 -5.73184 	 
C 	 -106.286 	 63.3783 	 -6.85619 	 
H 	 -106.558 	 64.1111 	 -7.67342 	 
H 	 -105.301 	 63.606 	 -6.55839 	 
C 	 -107.196 	 63.5282 	 -5.63957 	 
H 	 -107.178 	 64.5884 	 -5.34462 	 
H 	 -106.767 	 62.9337 	 -4.88283 	 
C 	 -108.668 	 63.3626 	 -6.05679 	 
H 	 -109.421 	 63.5538 	 -5.27752 	 
H 	 -109.05 	 62.3417 	 -6.39542 	 
H 	 -108.989 	 64.1003 	 -6.80941 	 
H 	 -106.117 	 64.1237 	 -13.3656 	 
H 	 -106.17 	 58.6845 	 -7.13351 	 
