34

S 	 -57.4744 	 -55.9061 	 -86.845 	 
C 	 -58.9835 	 -54.9583 	 -86.8664 	 
C 	 -60.1568 	 -55.7451 	 -86.7839 	 
C 	 -59.7864 	 -57.121 	 -86.7108 	 
C 	 -58.4352 	 -57.3517 	 -86.586 	 
H 	 -60.4879 	 -57.9469 	 -86.5251 	 
C 	 -61.6074 	 -55.1578 	 -87.032 	 
H 	 -61.4276 	 -54.6715 	 -87.9512 	 
H 	 -61.8551 	 -54.3798 	 -86.2227 	 
C 	 -62.676 	 -56.2578 	 -87.1727 	 
H 	 -62.5649 	 -56.9485 	 -88.0366 	 
H 	 -62.8055 	 -56.8979 	 -86.2349 	 
C 	 -64.101 	 -55.838 	 -87.3693 	 
H 	 -64.161 	 -55.2968 	 -88.2715 	 
H 	 -64.9508 	 -56.5697 	 -87.4108 	 
H 	 -64.2674 	 -55.2252 	 -86.4821 	 
S 	 -56.5996 	 -58.7091 	 -84.9019 	 
C 	 -56.8041 	 -60.453 	 -84.7373 	 
C 	 -57.6624 	 -60.9581 	 -85.6882 	 
C 	 -58.2881 	 -59.9218 	 -86.4837 	 
C 	 -57.878 	 -58.6718 	 -86.1441 	 
H 	 -57.8409 	 -62.0544 	 -85.8341 	 
C 	 -59.4261 	 -60.3193 	 -87.4505 	 
H 	 -58.8614 	 -61.055 	 -88.1344 	 
H 	 -59.6305 	 -59.475 	 -88.0548 	 
C 	 -60.6342 	 -61.0095 	 -86.7272 	 
H 	 -60.8816 	 -60.1664 	 -86.1036 	 
H 	 -60.3103 	 -61.9024 	 -86.197 	 
C 	 -61.8081 	 -61.2124 	 -87.658 	 
H 	 -62.6704 	 -61.7461 	 -87.1384 	 
H 	 -61.5465 	 -61.8327 	 -88.5745 	 
H 	 -62.2006 	 -60.2502 	 -88.0222 	 
H 	 -58.9937 	 -53.835 	 -86.8277 	 
H 	 -56.3636 	 -60.9552 	 -83.9003 	 
