34

S 	 -46.2432 	 -51.5232 	 -73.7988 	 
C 	 -45.1659 	 -50.2422 	 -74.3649 	 
C 	 -43.9136 	 -50.391 	 -73.9073 	 
C 	 -43.7731 	 -51.5011 	 -73.0383 	 
C 	 -44.9373 	 -52.2487 	 -72.8947 	 
H 	 -42.8781 	 -51.737 	 -72.4531 	 
C 	 -42.8803 	 -49.363 	 -74.0768 	 
H 	 -43.4319 	 -48.5393 	 -74.5052 	 
H 	 -42.275 	 -49.7104 	 -74.9326 	 
C 	 -42.1563 	 -48.6976 	 -72.8749 	 
H 	 -41.3123 	 -49.2886 	 -72.5757 	 
H 	 -41.8424 	 -47.7825 	 -73.2464 	 
C 	 -43.0199 	 -48.5181 	 -71.5869 	 
H 	 -43.9853 	 -48.2672 	 -71.9632 	 
H 	 -42.9561 	 -49.4293 	 -71.0043 	 
H 	 -42.7215 	 -47.6738 	 -70.9169 	 
S 	 -46.1544 	 -54.6735 	 -72.965 	 
C 	 -46.2312 	 -55.6964 	 -71.5815 	 
C 	 -45.5249 	 -55.0993 	 -70.5601 	 
C 	 -44.8603 	 -53.8683 	 -70.852 	 
C 	 -45.2101 	 -53.4455 	 -72.1357 	 
H 	 -45.4741 	 -55.7249 	 -69.6728 	 
C 	 -44.0162 	 -53.075 	 -69.9113 	 
H 	 -43.4874 	 -52.2738 	 -70.4219 	 
H 	 -43.2276 	 -53.6829 	 -69.4046 	 
C 	 -44.8269 	 -52.4356 	 -68.801 	 
H 	 -45.4904 	 -53.1151 	 -68.2772 	 
H 	 -45.5776 	 -51.8298 	 -69.3047 	 
C 	 -44.0847 	 -51.5782 	 -67.9253 	 
H 	 -43.6136 	 -50.7561 	 -68.5183 	 
H 	 -43.253 	 -52.0469 	 -67.4666 	 
H 	 -44.6643 	 -51.0979 	 -67.1838 	 
H 	 -45.4622 	 -49.4633 	 -75.0404 	 
H 	 -46.8776 	 -56.5229 	 -71.3204 	 
