34

S 	 -118.099 	 61.3018 	 -36.4461 	 
C 	 -118.372 	 62.971 	 -36.7856 	 
C 	 -117.279 	 63.5786 	 -37.3669 	 
C 	 -116.158 	 62.6531 	 -37.5909 	 
C 	 -116.458 	 61.424 	 -37.0852 	 
H 	 -115.202 	 63.0339 	 -38.0361 	 
C 	 -117.181 	 65.0202 	 -37.885 	 
H 	 -116.83 	 65.1255 	 -38.9349 	 
H 	 -116.462 	 65.4782 	 -37.2013 	 
C 	 -118.491 	 65.8594 	 -37.9951 	 
H 	 -118.067 	 66.7661 	 -38.4432 	 
H 	 -119.246 	 65.3148 	 -38.647 	 
C 	 -119.016 	 66.5252 	 -36.7242 	 
H 	 -118.269 	 67.1986 	 -36.2939 	 
H 	 -119.89 	 67.1562 	 -36.9124 	 
H 	 -119.056 	 65.6494 	 -36.0655 	 
S 	 -114.51 	 59.9101 	 -38.4086 	 
C 	 -113.82 	 58.5534 	 -37.5643 	 
C 	 -114.292 	 58.4112 	 -36.2882 	 
C 	 -115.252 	 59.3778 	 -35.9595 	 
C 	 -115.533 	 60.2252 	 -37.0094 	 
H 	 -114.016 	 57.536 	 -35.7251 	 
C 	 -115.95 	 59.4441 	 -34.6471 	 
H 	 -115.674 	 58.5429 	 -34.0902 	 
H 	 -117.06 	 59.2864 	 -34.7228 	 
C 	 -115.629 	 60.6034 	 -33.7674 	 
H 	 -116.159 	 60.397 	 -32.8003 	 
H 	 -116.033 	 61.5594 	 -34.1145 	 
C 	 -114.058 	 60.6994 	 -33.5549 	 
H 	 -113.772 	 61.2506 	 -32.6241 	 
H 	 -113.554 	 61.2043 	 -34.3911 	 
H 	 -113.555 	 59.7533 	 -33.5575 	 
H 	 -119.38 	 63.4258 	 -36.8149 	 
H 	 -113.005 	 57.9287 	 -38.0403 	 
