34

S 	 -48.944 	 19.3989 	 30.3856 	 
C 	 -50.2475 	 20.022 	 31.4597 	 
C 	 -49.7732 	 20.8922 	 32.3253 	 
C 	 -48.3786 	 21.1351 	 32.2585 	 
C 	 -47.7032 	 20.2686 	 31.373 	 
H 	 -47.7759 	 21.8802 	 32.7181 	 
C 	 -50.7349 	 21.8004 	 33.0927 	 
H 	 -50.4002 	 22.0178 	 34.1135 	 
H 	 -51.7651 	 21.4333 	 33.056 	 
C 	 -50.9608 	 23.1804 	 32.4716 	 
H 	 -50.0927 	 23.7804 	 32.3352 	 
H 	 -51.4287 	 23.0533 	 31.497 	 
C 	 -51.9626 	 23.8886 	 33.369 	 
H 	 -52.0487 	 24.8134 	 32.9002 	 
H 	 -52.9584 	 23.401 	 33.1796 	 
H 	 -51.6394 	 23.8741 	 34.4093 	 
S 	 -46.0603 	 20.4606 	 29.1939 	 
C 	 -44.3474 	 20.2644 	 29.5088 	 
C 	 -44.0214 	 20.4264 	 30.8284 	 
C 	 -45.1487 	 20.4367 	 31.6459 	 
C 	 -46.3269 	 20.364 	 30.9687 	 
H 	 -43.0468 	 20.4149 	 31.2241 	 
C 	 -45.068 	 20.539 	 33.1926 	 
H 	 -45.9239 	 21.1533 	 33.4914 	 
H 	 -44.1379 	 21.0931 	 33.5248 	 
C 	 -45.172 	 19.2269 	 33.9583 	 
H 	 -44.4253 	 18.5947 	 33.4827 	 
H 	 -46.1297 	 18.8428 	 33.8593 	 
C 	 -44.9352 	 19.328 	 35.38 	 
H 	 -45.0717 	 18.4004 	 35.9304 	 
H 	 -45.5357 	 20.0216 	 35.8569 	 
H 	 -43.895 	 19.5991 	 35.5321 	 
H 	 -51.2724 	 19.6703 	 31.281 	 
H 	 -43.4729 	 20.0847 	 28.875 	 
