34

S 	 29.8505 	 -30.2533 	 -131.205 	 
C 	 29.6587 	 -28.6183 	 -131.446 	 
C 	 28.6452 	 -28.0156 	 -130.683 	 
C 	 28.2725 	 -28.9121 	 -129.582 	 
C 	 28.8883 	 -30.1851 	 -129.761 	 
H 	 27.5454 	 -28.7923 	 -128.766 	 
C 	 28.06 	 -26.6446 	 -130.979 	 
H 	 28.7957 	 -25.9707 	 -131.307 	 
H 	 27.5979 	 -26.2601 	 -130.064 	 
C 	 27.0014 	 -26.5931 	 -132.14 	 
H 	 27.5519 	 -26.8906 	 -133.02 	 
H 	 26.1835 	 -27.2646 	 -131.877 	 
C 	 26.4112 	 -25.2161 	 -132.447 	 
H 	 27.109 	 -24.6125 	 -132.971 	 
H 	 25.5983 	 -25.3856 	 -133.143 	 
H 	 26.0425 	 -24.7343 	 -131.578 	 
S 	 27.8209 	 -32.736 	 -129.889 	 
C 	 27.4536 	 -33.6248 	 -128.448 	 
C 	 27.9023 	 -32.9737 	 -127.343 	 
C 	 28.6246 	 -31.792 	 -127.651 	 
C 	 28.5981 	 -31.434 	 -129.056 	 
H 	 27.8688 	 -33.2959 	 -126.323 	 
C 	 29.1514 	 -30.862 	 -126.646 	 
H 	 29.8591 	 -30.1413 	 -127.152 	 
H 	 29.9231 	 -31.3532 	 -126.031 	 
C 	 28.1698 	 -29.9348 	 -125.882 	 
H 	 27.3251 	 -30.5396 	 -125.66 	 
H 	 27.8636 	 -29.2418 	 -126.612 	 
C 	 28.7271 	 -29.0549 	 -124.669 	 
H 	 27.9431 	 -28.7354 	 -123.994 	 
H 	 29.2409 	 -28.1849 	 -125.086 	 
H 	 29.4448 	 -29.6745 	 -124.08 	 
H 	 29.8959 	 -28.1588 	 -132.41 	 
H 	 26.9328 	 -34.5748 	 -128.322 	 
