34

S 	 39.0819 	 -24.8314 	 -119.55 	 
C 	 37.2828 	 -24.7254 	 -119.383 	 
C 	 36.7223 	 -25.1417 	 -120.522 	 
C 	 37.6873 	 -25.6002 	 -121.507 	 
C 	 39.03 	 -25.4274 	 -121.132 	 
H 	 37.5877 	 -25.9207 	 -122.546 	 
C 	 35.2313 	 -25.0089 	 -120.72 	 
H 	 34.5917 	 -25.4958 	 -120.014 	 
H 	 34.991 	 -25.5862 	 -121.544 	 
C 	 34.7188 	 -23.5784 	 -121.166 	 
H 	 35.031 	 -23.3459 	 -122.186 	 
H 	 33.6947 	 -23.627 	 -120.989 	 
C 	 35.1506 	 -22.3981 	 -120.303 	 
H 	 34.8152 	 -21.4174 	 -120.622 	 
H 	 34.7087 	 -22.5251 	 -119.279 	 
H 	 36.2623 	 -22.3466 	 -120.132 	 
S 	 41.3712 	 -24.9807 	 -122.45 	 
C 	 42.3489 	 -26.2788 	 -122.927 	 
C 	 41.7711 	 -27.5239 	 -122.582 	 
C 	 40.5389 	 -27.3456 	 -121.862 	 
C 	 40.1768 	 -25.988 	 -121.804 	 
H 	 42.1796 	 -28.4503 	 -123.072 	 
C 	 39.8264 	 -28.4873 	 -121.15 	 
H 	 39.2416 	 -29.0837 	 -121.966 	 
H 	 39.0197 	 -28.1763 	 -120.444 	 
C 	 40.7615 	 -29.3841 	 -120.375 	 
H 	 41.5664 	 -28.7649 	 -119.96 	 
H 	 41.238 	 -30.1146 	 -121.089 	 
C 	 40.1053 	 -29.898 	 -119.089 	 
H 	 40.7985 	 -30.4059 	 -118.474 	 
H 	 39.1837 	 -30.5812 	 -119.228 	 
H 	 39.6386 	 -29.1951 	 -118.45 	 
H 	 36.7949 	 -24.4765 	 -118.46 	 
H 	 43.178 	 -26.2972 	 -123.536 	 
