34

S 	 22.5021 	 -0.191641 	 -110.505 	 
C 	 21.5057 	 -1.5836 	 -110.932 	 
C 	 20.1821 	 -1.35036 	 -110.679 	 
C 	 19.9337 	 0.0028217 	 -110.325 	 
C 	 21.0703 	 0.761388 	 -110.194 	 
H 	 18.9283 	 0.402913 	 -110.146 	 
C 	 19.0572 	 -2.32551 	 -110.882 	 
H 	 19.5181 	 -3.11815 	 -111.502 	 
H 	 18.2143 	 -1.85099 	 -111.429 	 
C 	 18.3811 	 -2.93461 	 -109.602 	 
H 	 17.637 	 -3.65404 	 -110.019 	 
H 	 19.1015 	 -3.48912 	 -108.999 	 
C 	 17.7382 	 -1.95671 	 -108.579 	 
H 	 17.008 	 -1.23808 	 -108.997 	 
H 	 17.1594 	 -2.49326 	 -107.742 	 
H 	 18.5485 	 -1.53625 	 -107.945 	 
S 	 21.896 	 3.20047 	 -111.292 	 
C 	 21.7373 	 4.6711 	 -110.335 	 
C 	 21.1508 	 4.41665 	 -109.107 	 
C 	 20.8872 	 2.97954 	 -108.861 	 
C 	 21.2031 	 2.22088 	 -109.984 	 
H 	 21.049 	 5.17256 	 -108.396 	 
C 	 20.1179 	 2.42118 	 -107.662 	 
H 	 20.289 	 1.40702 	 -107.538 	 
H 	 19.1213 	 2.49526 	 -108.037 	 
C 	 20.2609 	 3.22791 	 -106.377 	 
H 	 19.6947 	 2.7909 	 -105.591 	 
H 	 19.9293 	 4.31531 	 -106.478 	 
C 	 21.708 	 3.21254 	 -105.919 	 
H 	 22.0152 	 3.69225 	 -104.959 	 
H 	 22.4032 	 3.5618 	 -106.687 	 
H 	 22.0833 	 2.15928 	 -105.82 	 
H 	 21.8192 	 -2.60224 	 -111.177 	 
H 	 22.0211 	 5.73408 	 -110.513 	 
