34

S 	 28.8465 	 -32.1342 	 -133.549 	 
C 	 29.2487 	 -30.7123 	 -134.511 	 
C 	 29.0648 	 -29.5594 	 -133.74 	 
C 	 28.9876 	 -29.8471 	 -132.343 	 
C 	 28.8525 	 -31.2244 	 -132.05 	 
H 	 28.6484 	 -29.1932 	 -131.622 	 
C 	 28.9137 	 -28.164 	 -134.302 	 
H 	 27.8756 	 -27.8846 	 -134.242 	 
H 	 29.0064 	 -28.237 	 -135.369 	 
C 	 29.7924 	 -27.0733 	 -133.767 	 
H 	 29.8781 	 -27.1333 	 -132.702 	 
H 	 30.7941 	 -27.2093 	 -134.239 	 
C 	 29.4175 	 -25.7103 	 -134.295 	 
H 	 30.2169 	 -24.9582 	 -134.137 	 
H 	 29.2889 	 -25.7921 	 -135.357 	 
H 	 28.4911 	 -25.3255 	 -133.872 	 
S 	 27.3666 	 -33.0087 	 -130.42 	 
C 	 27.7195 	 -33.1053 	 -128.77 	 
C 	 28.7669 	 -32.2516 	 -128.458 	 
C 	 29.2497 	 -31.4175 	 -129.508 	 
C 	 28.6255 	 -31.8073 	 -130.711 	 
H 	 29.283 	 -32.3771 	 -127.531 	 
C 	 30.384 	 -30.4491 	 -129.29 	 
H 	 30.6752 	 -29.8839 	 -130.197 	 
H 	 31.2432 	 -31.0675 	 -128.995 	 
C 	 30.0373 	 -29.2971 	 -128.324 	 
H 	 29.6762 	 -29.7743 	 -127.428 	 
H 	 29.114 	 -28.6861 	 -128.607 	 
C 	 31.2306 	 -28.4105 	 -128.046 	 
H 	 31.3093 	 -27.6196 	 -128.806 	 
H 	 32.0367 	 -29.0452 	 -128.056 	 
H 	 31.1267 	 -27.9515 	 -127.086 	 
H 	 29.2639 	 -30.7891 	 -135.583 	 
H 	 27.4286 	 -33.9385 	 -128.129 	 
