34

S 	 -120.716 	 24.6889 	 -15.144 	 
C 	 -119.005 	 24.8061 	 -15.4366 	 
C 	 -118.24 	 23.8366 	 -14.7796 	 
C 	 -119.15 	 23.0606 	 -14.0111 	 
C 	 -120.472 	 23.3797 	 -14.0759 	 
H 	 -118.812 	 22.1296 	 -13.5176 	 
C 	 -116.75 	 23.4823 	 -14.9741 	 
H 	 -116.305 	 23.648 	 -13.968 	 
H 	 -116.278 	 24.1708 	 -15.7097 	 
C 	 -116.451 	 22.0965 	 -15.4776 	 
H 	 -115.383 	 21.8706 	 -15.5667 	 
H 	 -116.849 	 21.376 	 -14.7769 	 
C 	 -117.088 	 21.7883 	 -16.8598 	 
H 	 -118.162 	 21.9789 	 -16.9636 	 
H 	 -116.458 	 22.353 	 -17.5242 	 
H 	 -116.87 	 20.7805 	 -17.0875 	 
S 	 -122.992 	 22.4225 	 -14.4866 	 
C 	 -123.807 	 21.628 	 -13.2514 	 
C 	 -122.991 	 21.398 	 -12.2072 	 
C 	 -121.641 	 21.8089 	 -12.3694 	 
C 	 -121.562 	 22.5813 	 -13.4987 	 
H 	 -123.38 	 20.8675 	 -11.3398 	 
C 	 -120.629 	 21.6537 	 -11.2619 	 
H 	 -119.844 	 21.0656 	 -11.7886 	 
H 	 -121.027 	 21.0188 	 -10.4682 	 
C 	 -120.019 	 22.9582 	 -10.6816 	 
H 	 -119.54 	 23.6106 	 -11.4074 	 
H 	 -119.262 	 22.7355 	 -9.87123 	 
C 	 -121.135 	 23.8209 	 -10.1156 	 
H 	 -121.878 	 23.4158 	 -9.38195 	 
H 	 -121.75 	 24.2101 	 -10.963 	 
H 	 -120.73 	 24.6016 	 -9.49666 	 
H 	 -118.635 	 25.5022 	 -16.1062 	 
H 	 -124.806 	 21.2501 	 -13.3711 	 
