34

S 	 -33.0741 	 -35.6462 	 -91.1721 	 
C 	 -32.6065 	 -35.4519 	 -89.5048 	 
C 	 -31.39 	 -36.059 	 -89.287 	 
C 	 -30.7978 	 -36.5969 	 -90.4628 	 
C 	 -31.603 	 -36.4947 	 -91.6189 	 
H 	 -29.9347 	 -37.2225 	 -90.5551 	 
C 	 -30.6621 	 -36.2972 	 -87.939 	 
H 	 -29.8215 	 -36.9716 	 -87.9638 	 
H 	 -31.424 	 -36.8223 	 -87.3 	 
C 	 -30.2617 	 -34.9417 	 -87.3219 	 
H 	 -30.8793 	 -34.077 	 -87.6226 	 
H 	 -30.4646 	 -35.0933 	 -86.3174 	 
C 	 -28.8053 	 -34.6236 	 -87.451 	 
H 	 -28.3127 	 -35.5168 	 -87.0111 	 
H 	 -28.4734 	 -34.4498 	 -88.4807 	 
H 	 -28.4681 	 -33.7205 	 -86.9772 	 
S 	 -29.5737 	 -37.0687 	 -93.276 	 
C 	 -29.797 	 -38.0373 	 -94.687 	 
C 	 -31.1365 	 -38.3675 	 -94.9073 	 
C 	 -31.9717 	 -37.8186 	 -93.8621 	 
C 	 -31.2741 	 -37.0896 	 -92.9128 	 
H 	 -31.4892 	 -38.8606 	 -95.7434 	 
C 	 -33.5025 	 -38.1668 	 -93.8053 	 
H 	 -33.8588 	 -38.3995 	 -92.8083 	 
H 	 -33.6578 	 -39.0943 	 -94.3341 	 
C 	 -34.4892 	 -37.1523 	 -94.4536 	 
H 	 -34.3287 	 -37.1276 	 -95.5217 	 
H 	 -34.074 	 -36.1362 	 -94.13 	 
C 	 -36.0057 	 -37.2844 	 -93.9296 	 
H 	 -36.7291 	 -36.6749 	 -94.4908 	 
H 	 -36.1012 	 -37.0165 	 -92.8544 	 
H 	 -36.3514 	 -38.2895 	 -94.0188 	 
H 	 -33.1815 	 -34.9208 	 -88.7248 	 
H 	 -29.034 	 -38.406 	 -95.4439 	 
