34

S 	 -96.1381 	 5.80844 	 0.133877 	 
C 	 -97.4135 	 6.46304 	 -0.826478 	 
C 	 -96.8477 	 7.28344 	 -1.78502 	 
C 	 -95.4303 	 7.19584 	 -1.9265 	 
C 	 -94.8991 	 6.37175 	 -0.917576 	 
H 	 -94.9249 	 7.63538 	 -2.77594 	 
C 	 -97.6725 	 8.07323 	 -2.75114 	 
H 	 -97.3386 	 9.06877 	 -2.74369 	 
H 	 -98.6665 	 8.05323 	 -2.29989 	 
C 	 -97.747 	 7.40813 	 -4.19152 	 
H 	 -96.7877 	 7.2648 	 -4.68262 	 
H 	 -98.0304 	 6.38436 	 -4.0516 	 
C 	 -98.6007 	 8.09003 	 -5.25044 	 
H 	 -99.6436 	 8.14009 	 -4.87351 	 
H 	 -98.1615 	 9.08181 	 -5.51387 	 
H 	 -98.6199 	 7.35738 	 -6.13257 	 
S 	 -93.3699 	 4.32736 	 0.0242336 	 
C 	 -91.6434 	 4.44916 	 0.247771 	 
C 	 -91.1416 	 5.50827 	 -0.52023 	 
C 	 -92.1809 	 6.25886 	 -1.17771 	 
C 	 -93.4865 	 5.86327 	 -0.831532 	 
H 	 -90.0224 	 5.64258 	 -0.573242 	 
C 	 -91.8034 	 7.59402 	 -1.8743 	 
H 	 -92.4745 	 7.7487 	 -2.77648 	 
H 	 -90.7272 	 7.6595 	 -2.21362 	 
C 	 -91.9387 	 8.72109 	 -0.884438 	 
H 	 -91.1616 	 8.59293 	 -0.0896419 	 
H 	 -92.9285 	 8.5368 	 -0.286388 	 
C 	 -91.8672 	 10.1703 	 -1.38177 	 
H 	 -92.7481 	 10.152 	 -2.03734 	 
H 	 -91.0104 	 10.381 	 -1.9684 	 
H 	 -91.9678 	 10.9892 	 -0.651176 	 
H 	 -98.5064 	 6.41645 	 -0.68777 	 
H 	 -91.0959 	 3.75753 	 0.887395 	 
