34

S 	 -58.1449 	 -2.71598 	 -24.8264 	 
C 	 -58.1574 	 -3.27903 	 -26.4953 	 
C 	 -59.4274 	 -3.48876 	 -26.9423 	 
C 	 -60.4083 	 -3.03845 	 -25.9912 	 
C 	 -59.8596 	 -2.36893 	 -24.8688 	 
H 	 -61.4783 	 -3.12845 	 -26.1722 	 
C 	 -59.9011 	 -3.9755 	 -28.3182 	 
H 	 -59.0769 	 -4.00074 	 -28.9933 	 
H 	 -60.4894 	 -3.25034 	 -28.7321 	 
C 	 -60.7501 	 -5.25554 	 -28.3549 	 
H 	 -60.0517 	 -6.0018 	 -27.9941 	 
H 	 -61.6762 	 -5.27676 	 -27.7296 	 
C 	 -61.3093 	 -5.59493 	 -29.7642 	 
H 	 -60.5719 	 -5.30438 	 -30.5847 	 
H 	 -61.7087 	 -6.58158 	 -29.9296 	 
H 	 -62.1502 	 -4.90831 	 -29.8969 	 
S 	 -60.2973 	 -2.30808 	 -22.0204 	 
C 	 -61.6142 	 -1.14588 	 -21.5081 	 
C 	 -62.0746 	 -0.39671 	 -22.5363 	 
C 	 -61.561 	 -0.826852 	 -23.7998 	 
C 	 -60.5841 	 -1.83161 	 -23.7267 	 
H 	 -62.8136 	 0.428472 	 -22.4895 	 
C 	 -62.1077 	 -0.207009 	 -25.0895 	 
H 	 -63.0582 	 0.1956 	 -24.803 	 
H 	 -62.1752 	 -1.01856 	 -25.7828 	 
C 	 -61.2756 	 0.936662 	 -25.6919 	 
H 	 -61.3091 	 1.21866 	 -26.7445 	 
H 	 -60.2428 	 0.67334 	 -25.4809 	 
C 	 -61.5006 	 2.28819 	 -24.9813 	 
H 	 -62.4757 	 2.69544 	 -25.2149 	 
H 	 -60.7351 	 3.01093 	 -25.2353 	 
H 	 -61.4308 	 2.11613 	 -23.9401 	 
H 	 -57.3536 	 -3.69753 	 -27.0406 	 
H 	 -61.878 	 -0.923937 	 -20.527 	 
