34

S 	 -54.3244 	 -50.3042 	 -77.9573 	 
C 	 -53.7377 	 -48.8334 	 -77.1735 	 
C 	 -52.5217 	 -48.5244 	 -77.6931 	 
C 	 -52.01 	 -49.4217 	 -78.6735 	 
C 	 -52.8745 	 -50.4522 	 -78.9053 	 
H 	 -51.0168 	 -49.3606 	 -79.1197 	 
C 	 -51.7666 	 -47.284 	 -77.3177 	 
H 	 -50.7777 	 -47.4433 	 -77.1026 	 
H 	 -52.2694 	 -46.9484 	 -76.3587 	 
C 	 -51.8672 	 -46.0602 	 -78.2396 	 
H 	 -52.8581 	 -45.6657 	 -78.4176 	 
H 	 -51.3702 	 -45.2195 	 -77.6695 	 
C 	 -51.197 	 -46.3017 	 -79.5891 	 
H 	 -51.7464 	 -47.0476 	 -80.1401 	 
H 	 -51.3845 	 -45.5919 	 -80.2544 	 
H 	 -50.1715 	 -46.6818 	 -79.5028 	 
S 	 -54.0923 	 -51.7694 	 -80.9987 	 
C 	 -53.2597 	 -52.9667 	 -81.8606 	 
C 	 -51.9125 	 -52.9898 	 -81.5343 	 
C 	 -51.6403 	 -52.0483 	 -80.5376 	 
C 	 -52.7562 	 -51.4473 	 -79.9717 	 
H 	 -51.3371 	 -53.7561 	 -82.049 	 
C 	 -50.2367 	 -51.983 	 -79.8968 	 
H 	 -49.7259 	 -52.8843 	 -80.027 	 
H 	 -50.3429 	 -51.759 	 -78.8686 	 
C 	 -49.2523 	 -51.0231 	 -80.457 	 
H 	 -49.8696 	 -50.0619 	 -80.5155 	 
H 	 -49.1752 	 -51.3319 	 -81.4737 	 
C 	 -47.9466 	 -50.968 	 -79.6912 	 
H 	 -48.0726 	 -50.6952 	 -78.6743 	 
H 	 -47.2871 	 -50.1914 	 -80.2384 	 
H 	 -47.3772 	 -51.8504 	 -79.6062 	 
H 	 -54.3265 	 -48.2191 	 -76.5255 	 
H 	 -53.7348 	 -53.3029 	 -82.7649 	 
