34

S 	 -81.3424 	 -1.77634 	 -59.8403 	 
C 	 -79.7391 	 -1.04985 	 -59.4362 	 
C 	 -78.7613 	 -2.04578 	 -59.2478 	 
C 	 -79.3009 	 -3.36642 	 -59.4121 	 
C 	 -80.658 	 -3.35835 	 -59.7626 	 
H 	 -78.7148 	 -4.2336 	 -59.4059 	 
C 	 -77.2199 	 -1.9067 	 -59.044 	 
H 	 -76.751 	 -1.02323 	 -59.5541 	 
H 	 -76.7645 	 -2.74931 	 -59.5873 	 
C 	 -76.7649 	 -1.87612 	 -57.5772 	 
H 	 -77.1514 	 -0.863058 	 -57.2835 	 
H 	 -77.2009 	 -2.67704 	 -57.0084 	 
C 	 -75.2573 	 -2.05739 	 -57.387 	 
H 	 -74.7317 	 -1.22619 	 -57.8236 	 
H 	 -74.8722 	 -2.26699 	 -56.3418 	 
H 	 -74.9331 	 -2.90824 	 -57.9598 	 
S 	 -81.7413 	 -5.77281 	 -58.8432 	 
C 	 -82.4962 	 -6.87609 	 -60.0291 	 
C 	 -82.2913 	 -6.41684 	 -61.2972 	 
C 	 -81.6377 	 -5.13586 	 -61.2997 	 
C 	 -81.352 	 -4.61344 	 -60.0608 	 
H 	 -82.6443 	 -6.99328 	 -62.1494 	 
C 	 -81.4668 	 -4.38248 	 -62.5819 	 
H 	 -80.8596 	 -5.12817 	 -63.1295 	 
H 	 -80.713 	 -3.50957 	 -62.5238 	 
C 	 -82.8061 	 -3.95343 	 -63.348 	 
H 	 -83.4914 	 -4.79683 	 -63.4886 	 
H 	 -82.5316 	 -3.43589 	 -64.3104 	 
C 	 -83.6528 	 -2.97319 	 -62.6626 	 
H 	 -84.3272 	 -3.32021 	 -61.9502 	 
H 	 -84.2754 	 -2.38466 	 -63.3765 	 
H 	 -83.1367 	 -2.28287 	 -62.0374 	 
H 	 -79.3921 	 -0.0801074 	 -59.2212 	 
H 	 -83.1905 	 -7.67203 	 -59.8424 	 
