34

S 	 -72.8134 	 6.66208 	 -110.114 	 
C 	 -73.3824 	 7.6651 	 -108.823 	 
C 	 -72.3968 	 7.9374 	 -107.895 	 
C 	 -71.1354 	 7.30328 	 -108.204 	 
C 	 -71.1792 	 6.61141 	 -109.416 	 
H 	 -70.2013 	 7.47527 	 -107.671 	 
C 	 -72.5254 	 8.70989 	 -106.639 	 
H 	 -71.9638 	 9.65969 	 -106.752 	 
H 	 -72.0513 	 8.15347 	 -105.881 	 
C 	 -73.9907 	 8.9417 	 -106.166 	 
H 	 -74.5162 	 9.46166 	 -107.067 	 
H 	 -74.3985 	 7.89828 	 -106.104 	 
C 	 -74.0905 	 9.7581 	 -104.881 	 
H 	 -73.3787 	 10.5839 	 -104.872 	 
H 	 -75.1537 	 10.0356 	 -104.805 	 
H 	 -73.9253 	 9.19143 	 -103.965 	 
S 	 -70.7879 	 4.6913 	 -111.359 	 
C 	 -69.1907 	 4.12385 	 -111.657 	 
C 	 -68.2634 	 4.69623 	 -110.843 	 
C 	 -68.8377 	 5.62964 	 -109.874 	 
C 	 -70.2454 	 5.73452 	 -110.053 	 
H 	 -67.2292 	 4.43358 	 -110.937 	 
C 	 -67.8741 	 6.47726 	 -108.952 	 
H 	 -68.2498 	 7.50063 	 -108.771 	 
H 	 -66.9466 	 6.69083 	 -109.461 	 
C 	 -67.6235 	 5.79947 	 -107.625 	 
H 	 -68.5105 	 5.449 	 -107.122 	 
H 	 -67.0578 	 6.53974 	 -107.016 	 
C 	 -66.8042 	 4.49438 	 -107.709 	 
H 	 -65.8671 	 4.70513 	 -108.148 	 
H 	 -67.2015 	 3.67598 	 -108.267 	 
H 	 -66.7141 	 4.20421 	 -106.64 	 
H 	 -74.3704 	 8.20426 	 -108.907 	 
H 	 -69.0073 	 3.32927 	 -112.415 	 
