34

S 	 -44.3166 	 8.50431 	 29.5796 	 
C 	 -44.2026 	 9.42821 	 28.1575 	 
C 	 -45.4138 	 10.0132 	 27.7392 	 
C 	 -46.4862 	 9.65267 	 28.5887 	 
C 	 -46.0425 	 8.89457 	 29.6303 	 
H 	 -47.5286 	 9.83956 	 28.5804 	 
C 	 -45.5713 	 10.8515 	 26.483 	 
H 	 -44.791 	 11.6205 	 26.3575 	 
H 	 -46.5237 	 11.3978 	 26.4319 	 
C 	 -45.5718 	 10.05 	 25.1424 	 
H 	 -46.3242 	 9.33941 	 25.2502 	 
H 	 -45.7033 	 10.6794 	 24.268 	 
C 	 -44.3515 	 9.25402 	 24.8624 	 
H 	 -44.2753 	 8.36264 	 25.4488 	 
H 	 -44.3646 	 9.04869 	 23.8009 	 
H 	 -43.4649 	 9.91101 	 25.0259 	 
S 	 -46.6361 	 6.64085 	 31.0973 	 
C 	 -48.0811 	 6.50866 	 31.9985 	 
C 	 -48.6958 	 7.73813 	 32.0797 	 
C 	 -48.0648 	 8.76195 	 31.2872 	 
C 	 -46.9389 	 8.31098 	 30.6007 	 
H 	 -49.6165 	 7.78492 	 32.684 	 
C 	 -48.7163 	 10.1609 	 31.0866 	 
H 	 -48.0495 	 10.7604 	 30.4855 	 
H 	 -48.6312 	 10.619 	 32.0678 	 
C 	 -50.1748 	 10.268 	 30.479 	 
H 	 -50.3858 	 11.3417 	 30.2077 	 
H 	 -50.9299 	 10.0303 	 31.2287 	 
C 	 -50.4371 	 9.29875 	 29.3008 	 
H 	 -49.8577 	 9.62981 	 28.3948 	 
H 	 -51.4807 	 9.18536 	 29.0691 	 
H 	 -50.1571 	 8.33794 	 29.6139 	 
H 	 -43.2698 	 9.49464 	 27.5796 	 
H 	 -48.4291 	 5.65685 	 32.4574 	 
