34

S 	 -125.053 	 29.0745 	 -118.239 	 
C 	 -125.02 	 27.3351 	 -118.19 	 
C 	 -123.799 	 26.8639 	 -117.669 	 
C 	 -123.146 	 27.8631 	 -116.882 	 
C 	 -123.813 	 29.0726 	 -116.957 	 
H 	 -122.204 	 27.6814 	 -116.381 	 
C 	 -123.376 	 25.4093 	 -117.789 	 
H 	 -124.218 	 24.7868 	 -117.919 	 
H 	 -122.977 	 25.0828 	 -116.83 	 
C 	 -122.421 	 25.0492 	 -118.932 	 
H 	 -121.533 	 25.6238 	 -118.759 	 
H 	 -122.119 	 24.0066 	 -118.944 	 
C 	 -122.937 	 25.5267 	 -120.291 	 
H 	 -123.873 	 25.0157 	 -120.572 	 
H 	 -123.187 	 26.5988 	 -120.241 	 
H 	 -122.286 	 25.38 	 -121.099 	 
S 	 -123.078 	 31.7042 	 -117.186 	 
C 	 -122.883 	 32.6593 	 -115.75 	 
C 	 -122.856 	 31.929 	 -114.569 	 
C 	 -123.366 	 30.5673 	 -114.826 	 
C 	 -123.451 	 30.2871 	 -116.225 	 
H 	 -122.606 	 32.4518 	 -113.647 	 
C 	 -123.471 	 29.5553 	 -113.688 	 
H 	 -123.629 	 28.6558 	 -114.285 	 
H 	 -124.358 	 29.7233 	 -113.096 	 
C 	 -122.211 	 29.4999 	 -112.802 	 
H 	 -122.031 	 30.4078 	 -112.235 	 
H 	 -121.282 	 29.3349 	 -113.249 	 
C 	 -122.461 	 28.4018 	 -111.769 	 
H 	 -121.866 	 28.578 	 -110.854 	 
H 	 -122.128 	 27.5029 	 -112.305 	 
H 	 -123.463 	 28.3805 	 -111.333 	 
H 	 -125.675 	 26.7309 	 -118.743 	 
H 	 -122.532 	 33.7256 	 -115.662 	 
