34

S 	 -117.589 	 48.1249 	 -113.638 	 
C 	 -118.531 	 46.7108 	 -113.194 	 
C 	 -117.741 	 45.7074 	 -112.789 	 
C 	 -116.344 	 46.1379 	 -112.72 	 
C 	 -116.08 	 47.4559 	 -113.124 	 
H 	 -115.436 	 45.5645 	 -112.416 	 
C 	 -118.213 	 44.3135 	 -112.498 	 
H 	 -117.425 	 43.599 	 -112.548 	 
H 	 -118.869 	 44.0423 	 -113.258 	 
C 	 -119.026 	 44.0806 	 -111.222 	 
H 	 -118.471 	 44.3026 	 -110.308 	 
H 	 -119.958 	 44.6069 	 -111.312 	 
C 	 -119.536 	 42.6874 	 -111.153 	 
H 	 -120.061 	 42.5267 	 -110.196 	 
H 	 -120.118 	 42.3608 	 -112.034 	 
H 	 -118.568 	 41.9943 	 -111.23 	 
S 	 -114.336 	 49.1413 	 -111.876 	 
C 	 -112.767 	 49.3905 	 -112.677 	 
C 	 -112.499 	 48.5247 	 -113.726 	 
C 	 -113.656 	 47.7178 	 -113.996 	 
C 	 -114.745 	 48.0737 	 -113.19 	 
H 	 -111.5 	 48.5693 	 -114.29 	 
C 	 -113.707 	 46.6118 	 -115.124 	 
H 	 -114.633 	 46.1195 	 -115.185 	 
H 	 -113.07 	 45.7974 	 -114.832 	 
C 	 -113.253 	 47.0415 	 -116.571 	 
H 	 -113.381 	 46.0972 	 -117.173 	 
H 	 -112.128 	 47.1785 	 -116.5 	 
C 	 -113.921 	 48.2671 	 -117.21 	 
H 	 -115.001 	 48.1479 	 -117.371 	 
H 	 -113.429 	 48.5476 	 -118.109 	 
H 	 -113.633 	 49.0219 	 -116.556 	 
H 	 -119.621 	 46.6747 	 -113.543 	 
H 	 -112.013 	 50.0188 	 -112.294 	 
