34

S 	 -102.839 	 42.2708 	 -94.014 	 
C 	 -102.411 	 40.9204 	 -93.0246 	 
C 	 -101.569 	 39.9963 	 -93.674 	 
C 	 -101.308 	 40.4006 	 -94.9971 	 
C 	 -101.869 	 41.6085 	 -95.3891 	 
H 	 -100.586 	 39.9706 	 -95.7525 	 
C 	 -100.883 	 38.7967 	 -92.9677 	 
H 	 -100.886 	 37.9536 	 -93.7198 	 
H 	 -101.435 	 38.4816 	 -92.0773 	 
C 	 -99.4387 	 39.2054 	 -92.6537 	 
H 	 -98.9853 	 39.6768 	 -93.5235 	 
H 	 -99.3641 	 40.045 	 -91.9237 	 
C 	 -98.6082 	 38.0367 	 -92.1076 	 
H 	 -98.8922 	 37.6134 	 -91.2001 	 
H 	 -98.4932 	 37.1881 	 -92.7958 	 
H 	 -97.6902 	 38.5065 	 -91.9649 	 
S 	 -101.505 	 44.0987 	 -96.6622 	 
C 	 -101.718 	 44.0644 	 -98.4347 	 
C 	 -101.829 	 42.859 	 -98.9611 	 
C 	 -101.641 	 41.8186 	 -97.9772 	 
C 	 -101.681 	 42.2601 	 -96.6502 	 
H 	 -101.929 	 42.7131 	 -100.085 	 
C 	 -101.667 	 40.4581 	 -98.3516 	 
H 	 -100.825 	 39.9982 	 -97.8417 	 
H 	 -101.245 	 40.4876 	 -99.3809 	 
C 	 -103.065 	 39.79 	 -98.2901 	 
H 	 -103.322 	 39.748 	 -97.2227 	 
H 	 -102.889 	 38.7769 	 -98.7019 	 
C 	 -104.171 	 40.5087 	 -99.0878 	 
H 	 -104.745 	 41.2099 	 -98.4735 	 
H 	 -104.968 	 39.8371 	 -99.3113 	 
H 	 -103.821 	 41.0307 	 -99.9859 	 
H 	 -102.458 	 40.8662 	 -91.922 	 
H 	 -101.709 	 44.9055 	 -99.0804 	 
