34

S 	 -111.581 	 49.1315 	 -72.269 	 
C 	 -112.495 	 49.3182 	 -73.7508 	 
C 	 -111.665 	 49.6322 	 -74.7928 	 
C 	 -110.348 	 49.879 	 -74.2923 	 
C 	 -110.07 	 49.5037 	 -73.0053 	 
H 	 -109.634 	 50.3017 	 -75.0077 	 
C 	 -112.093 	 50.0965 	 -76.1997 	 
H 	 -112.594 	 49.3031 	 -76.7046 	 
H 	 -111.3 	 50.5199 	 -76.783 	 
C 	 -113.073 	 51.2205 	 -76.3131 	 
H 	 -113.369 	 51.2955 	 -77.3496 	 
H 	 -113.983 	 50.9047 	 -75.724 	 
C 	 -112.611 	 52.603 	 -75.7385 	 
H 	 -112.309 	 53.2217 	 -76.5718 	 
H 	 -113.47 	 53.2669 	 -75.5431 	 
H 	 -111.99 	 52.6559 	 -74.8276 	 
S 	 -108.83 	 49.4622 	 -70.5187 	 
C 	 -107.121 	 49.783 	 -70.4909 	 
C 	 -106.59 	 50.0744 	 -71.7401 	 
C 	 -107.465 	 49.9213 	 -72.7689 	 
C 	 -108.802 	 49.6921 	 -72.2529 	 
H 	 -105.52 	 50.4518 	 -71.7031 	 
C 	 -106.966 	 50.1268 	 -74.2037 	 
H 	 -107.528 	 49.5284 	 -74.8735 	 
H 	 -105.977 	 49.7019 	 -74.3432 	 
C 	 -107.002 	 51.5654 	 -74.6165 	 
H 	 -106.341 	 52.0945 	 -73.9497 	 
H 	 -107.972 	 52.1352 	 -74.485 	 
C 	 -106.712 	 51.9015 	 -76.0929 	 
H 	 -106.887 	 52.9704 	 -76.2138 	 
H 	 -107.39 	 51.3267 	 -76.7714 	 
H 	 -105.718 	 51.5752 	 -76.3129 	 
H 	 -113.551 	 49.2427 	 -73.8413 	 
H 	 -106.475 	 49.8157 	 -69.6831 	 
