34

S 	 -68.9989 	 18.8736 	 -77.9985 	 
C 	 -69.734 	 18.5234 	 -76.4468 	 
C 	 -69.9393 	 17.2026 	 -76.2263 	 
C 	 -69.538 	 16.4048 	 -77.3148 	 
C 	 -68.9188 	 17.1573 	 -78.3181 	 
H 	 -69.3962 	 15.3235 	 -77.3128 	 
C 	 -70.7224 	 16.6239 	 -75.1002 	 
H 	 -70.3653 	 15.6585 	 -74.7774 	 
H 	 -71.7932 	 16.4341 	 -75.3416 	 
C 	 -70.6988 	 17.4962 	 -73.8543 	 
H 	 -69.6898 	 17.8932 	 -73.7509 	 
H 	 -71.2918 	 18.4 	 -74.0201 	 
C 	 -71.1231 	 16.8074 	 -72.5642 	 
H 	 -72.1879 	 16.6007 	 -72.4892 	 
H 	 -70.5077 	 15.9322 	 -72.4244 	 
H 	 -70.8196 	 17.5053 	 -71.7577 	 
S 	 -69.0595 	 15.3958 	 -80.4222 	 
C 	 -67.8225 	 15.4224 	 -81.6698 	 
C 	 -66.7786 	 16.2842 	 -81.3391 	 
C 	 -67.0615 	 17.0351 	 -80.1551 	 
C 	 -68.189 	 16.5902 	 -79.5155 	 
H 	 -66.0377 	 16.4068 	 -82.0947 	 
C 	 -66.0789 	 18.0447 	 -79.6502 	 
H 	 -66.5329 	 18.7955 	 -78.9137 	 
H 	 -66.0036 	 18.7935 	 -80.4368 	 
C 	 -64.7507 	 17.529 	 -79.06 	 
H 	 -64.1939 	 18.3295 	 -78.6879 	 
H 	 -64.1812 	 17.1425 	 -79.9423 	 
C 	 -65.0211 	 16.4648 	 -78.0384 	 
H 	 -64.2529 	 16.3185 	 -77.313 	 
H 	 -65.0826 	 15.4937 	 -78.4756 	 
H 	 -65.9363 	 16.7052 	 -77.4795 	 
H 	 -70.0615 	 19.2785 	 -75.6983 	 
H 	 -67.9501 	 14.9231 	 -82.6121 	 
