34

S 	 -57.572 	 -1.46976 	 -29.835 	 
C 	 -57.9632 	 -2.44862 	 -28.3613 	 
C 	 -57.2305 	 -2.08249 	 -27.2363 	 
C 	 -56.5552 	 -0.836032 	 -27.4714 	 
C 	 -56.6965 	 -0.332396 	 -28.759 	 
H 	 -56.1113 	 -0.277842 	 -26.6649 	 
C 	 -57.2147 	 -2.75876 	 -25.8072 	 
H 	 -57.5654 	 -3.80018 	 -25.7797 	 
H 	 -57.9859 	 -2.26294 	 -25.2171 	 
C 	 -55.8929 	 -2.63504 	 -25.0106 	 
H 	 -55.0887 	 -3.15348 	 -25.5261 	 
H 	 -55.5551 	 -1.61483 	 -25.1535 	 
C 	 -55.9736 	 -3.06768 	 -23.5047 	 
H 	 -54.9616 	 -3.20977 	 -23.104 	 
H 	 -56.5841 	 -2.33723 	 -23.0086 	 
H 	 -56.4398 	 -4.09834 	 -23.3594 	 
S 	 -55.4337 	 0.891587 	 -30.9436 	 
C 	 -55.1246 	 2.53667 	 -30.9356 	 
C 	 -55.534 	 3.16382 	 -29.7994 	 
C 	 -56.0794 	 2.22602 	 -28.8476 	 
C 	 -56.091 	 0.886678 	 -29.3245 	 
H 	 -55.2055 	 4.1773 	 -29.6177 	 
C 	 -56.515 	 2.56833 	 -27.4137 	 
H 	 -56.0491 	 3.5086 	 -27.1204 	 
H 	 -56.1258 	 1.83956 	 -26.7587 	 
C 	 -58.0605 	 2.68927 	 -27.0932 	 
H 	 -58.1984 	 3.00758 	 -26.0519 	 
H 	 -58.4769 	 1.66948 	 -27.1498 	 
C 	 -58.7165 	 3.6844 	 -28.1009 	 
H 	 -58.1626 	 4.57858 	 -28.1023 	 
H 	 -59.7315 	 3.94093 	 -27.8381 	 
H 	 -58.7194 	 3.31897 	 -29.1324 	 
H 	 -58.5663 	 -3.29465 	 -28.343 	 
H 	 -54.3934 	 3.01168 	 -31.5717 	 
