34

S 	 -105.916 	 2.79496 	 -110.5 	 
C 	 -106.797 	 4.16095 	 -111.073 	 
C 	 -106.617 	 5.24489 	 -110.258 	 
C 	 -105.894 	 4.89576 	 -109.071 	 
C 	 -105.335 	 3.60414 	 -109.129 	 
H 	 -105.74 	 5.57353 	 -108.301 	 
C 	 -107.204 	 6.60264 	 -110.597 	 
H 	 -108.296 	 6.61547 	 -110.49 	 
H 	 -106.965 	 6.61539 	 -111.666 	 
C 	 -106.628 	 7.79825 	 -109.819 	 
H 	 -106.96 	 7.61471 	 -108.754 	 
H 	 -105.512 	 7.83747 	 -109.849 	 
C 	 -107.109 	 9.24194 	 -110.249 	 
H 	 -106.449 	 9.86164 	 -109.633 	 
H 	 -106.876 	 9.37912 	 -111.339 	 
H 	 -108.16 	 9.39896 	 -109.942 	 
S 	 -105.494 	 2.35171 	 -106.629 	 
C 	 -104.005 	 1.9434 	 -105.817 	 
C 	 -102.899 	 2.22233 	 -106.573 	 
C 	 -103.237 	 2.84626 	 -107.828 	 
C 	 -104.575 	 2.96363 	 -108.046 	 
H 	 -101.901 	 2.03319 	 -106.143 	 
C 	 -102.233 	 3.42961 	 -108.817 	 
H 	 -102.728 	 3.38736 	 -109.807 	 
H 	 -101.361 	 2.74912 	 -108.768 	 
C 	 -101.742 	 4.85361 	 -108.616 	 
H 	 -101.026 	 5.17981 	 -109.304 	 
H 	 -101.258 	 4.82275 	 -107.651 	 
C 	 -102.824 	 5.89641 	 -108.536 	 
H 	 -103.371 	 6.03923 	 -109.494 	 
H 	 -102.278 	 6.81845 	 -108.363 	 
H 	 -103.585 	 5.83683 	 -107.768 	 
H 	 -107.384 	 4.27066 	 -112.011 	 
H 	 -103.827 	 1.4407 	 -104.878 	 
