34

S 	 -135.817 	 22.0225 	 -19.4066 	 
C 	 -137.525 	 21.7996 	 -19.4508 	 
C 	 -138.042 	 21.9044 	 -18.1519 	 
C 	 -137.042 	 22.3149 	 -17.2216 	 
C 	 -135.828 	 22.5973 	 -17.7614 	 
H 	 -137.231 	 22.4827 	 -16.1966 	 
C 	 -139.468 	 21.5882 	 -17.6446 	 
H 	 -139.539 	 21.9286 	 -16.6459 	 
H 	 -139.621 	 20.5352 	 -17.4655 	 
C 	 -140.711 	 22.232 	 -18.4401 	 
H 	 -140.782 	 23.326 	 -18.3568 	 
H 	 -140.509 	 22.0894 	 -19.524 	 
C 	 -142.08 	 21.6627 	 -17.9785 	 
H 	 -142.885 	 21.9798 	 -18.6928 	 
H 	 -141.989 	 20.6179 	 -18.0928 	 
H 	 -142.398 	 21.79 	 -16.9686 	 
S 	 -133.792 	 24.3739 	 -17.9231 	 
C 	 -132.941 	 24.794 	 -16.4821 	 
C 	 -133.231 	 23.9743 	 -15.4308 	 
C 	 -134.177 	 22.9203 	 -15.8272 	 
C 	 -134.684 	 23.1228 	 -17.0941 	 
H 	 -132.652 	 24.0471 	 -14.5111 	 
C 	 -134.671 	 21.9036 	 -14.8901 	 
H 	 -133.983 	 21.0692 	 -14.8767 	 
H 	 -135.565 	 21.4575 	 -15.4785 	 
C 	 -135.071 	 22.3458 	 -13.4424 	 
H 	 -134.325 	 23.0375 	 -13.012 	 
H 	 -135.147 	 21.5004 	 -12.8201 	 
C 	 -136.468 	 23.028 	 -13.2561 	 
H 	 -136.883 	 23.1635 	 -12.2026 	 
H 	 -137.216 	 22.3302 	 -13.6506 	 
H 	 -136.552 	 23.9514 	 -13.8279 	 
H 	 -138.078 	 21.4726 	 -20.2963 	 
H 	 -132.356 	 25.6412 	 -16.354 	 
