34

S 	 -56.3499 	 15.2801 	 -90.4797 	 
C 	 -55.3394 	 13.9744 	 -90.8441 	 
C 	 -54.0643 	 14.2609 	 -90.4046 	 
C 	 -53.9989 	 15.3946 	 -89.5384 	 
C 	 -55.2445 	 16.055 	 -89.4595 	 
H 	 -53.1717 	 15.82 	 -88.9339 	 
C 	 -52.7981 	 13.446 	 -90.784 	 
H 	 -51.8945 	 14.1071 	 -90.4561 	 
H 	 -52.8457 	 13.3888 	 -91.8739 	 
C 	 -52.6177 	 12.0636 	 -90.2379 	 
H 	 -52.7874 	 11.9468 	 -89.1763 	 
H 	 -53.3027 	 11.3484 	 -90.6768 	 
C 	 -51.278 	 11.4234 	 -90.6193 	 
H 	 -51.1341 	 11.3869 	 -91.6932 	 
H 	 -50.3797 	 11.8986 	 -90.3276 	 
H 	 -51.1856 	 10.4128 	 -90.3464 	 
S 	 -56.1591 	 16.3307 	 -86.9169 	 
C 	 -56.6241 	 17.9094 	 -86.2917 	 
C 	 -56.3742 	 18.9047 	 -87.2019 	 
C 	 -55.9531 	 18.4244 	 -88.4821 	 
C 	 -55.667 	 17.0406 	 -88.4458 	 
H 	 -56.6022 	 19.975 	 -87.1078 	 
C 	 -55.7856 	 19.3831 	 -89.6696 	 
H 	 -54.9111 	 19.0152 	 -90.2709 	 
H 	 -55.7308 	 20.4107 	 -89.3356 	 
C 	 -57.0391 	 19.2135 	 -90.5689 	 
H 	 -57.95 	 19.0741 	 -89.9459 	 
H 	 -56.7241 	 18.3212 	 -91.0656 	 
C 	 -57.1798 	 20.2289 	 -91.6746 	 
H 	 -57.3947 	 21.1944 	 -91.2768 	 
H 	 -58.0507 	 19.952 	 -92.2394 	 
H 	 -56.303 	 20.2953 	 -92.2823 	 
H 	 -55.4658 	 13.0933 	 -91.4214 	 
H 	 -57.0365 	 18.03 	 -85.2956 	 
