34

S 	 -114.77 	 22.5484 	 -114.715 	 
C 	 -116.486 	 22.4744 	 -114.93 	 
C 	 -117.161 	 22.9738 	 -113.837 	 
C 	 -116.256 	 23.2066 	 -112.743 	 
C 	 -114.881 	 23.0288 	 -113.097 	 
H 	 -116.623 	 23.6391 	 -111.796 	 
C 	 -118.691 	 23.2008 	 -113.736 	 
H 	 -118.918 	 23.8162 	 -114.551 	 
H 	 -118.985 	 23.8547 	 -112.959 	 
C 	 -119.484 	 21.8261 	 -113.631 	 
H 	 -118.846 	 21.1362 	 -114.234 	 
H 	 -119.418 	 21.3553 	 -112.612 	 
C 	 -120.877 	 21.9068 	 -114.211 	 
H 	 -121.407 	 22.5737 	 -113.535 	 
H 	 -120.941 	 22.3035 	 -115.221 	 
H 	 -121.285 	 20.8768 	 -114.179 	 
S 	 -112.855 	 24.7222 	 -113.163 	 
C 	 -111.635 	 24.739 	 -111.96 	 
C 	 -112.046 	 24.0516 	 -110.852 	 
C 	 -113.373 	 23.4378 	 -111.014 	 
C 	 -113.817 	 23.6155 	 -112.304 	 
H 	 -111.427 	 23.9216 	 -109.971 	 
C 	 -113.995 	 22.464 	 -109.986 	 
H 	 -115.005 	 22.1875 	 -110.387 	 
H 	 -114.212 	 22.9325 	 -109.033 	 
C 	 -113.019 	 21.2703 	 -109.655 	 
H 	 -113.219 	 20.7354 	 -108.696 	 
H 	 -112.014 	 21.5755 	 -109.493 	 
C 	 -112.949 	 20.127 	 -110.621 	 
H 	 -113.932 	 19.9664 	 -110.973 	 
H 	 -112.407 	 19.2415 	 -110.19 	 
H 	 -112.376 	 20.4824 	 -111.503 	 
H 	 -116.96 	 22.3236 	 -115.848 	 
H 	 -110.779 	 25.371 	 -111.971 	 
