34

S 	 -80.7515 	 -27.0547 	 -54.507 	 
C 	 -79.6479 	 -27.0516 	 -53.1293 	 
C 	 -80.1515 	 -27.9865 	 -52.2147 	 
C 	 -81.3505 	 -28.6147 	 -52.7244 	 
C 	 -81.8637 	 -28.2367 	 -53.9047 	 
H 	 -82.0321 	 -29.2573 	 -52.157 	 
C 	 -79.7744 	 -28.3169 	 -50.737 	 
H 	 -80.4766 	 -29.1237 	 -50.4158 	 
H 	 -79.7814 	 -27.4141 	 -50.0807 	 
C 	 -78.32 	 -28.902 	 -50.6119 	 
H 	 -78.2465 	 -29.8884 	 -51.1923 	 
H 	 -77.6054 	 -28.2001 	 -51.1122 	 
C 	 -77.9408 	 -29.0764 	 -49.1349 	 
H 	 -77.8796 	 -28.2172 	 -48.5214 	 
H 	 -78.5934 	 -29.7486 	 -48.6337 	 
H 	 -76.9009 	 -29.527 	 -49.0981 	 
S 	 -83.9337 	 -27.0698 	 -55.3451 	 
C 	 -85.4735 	 -27.8366 	 -55.5431 	 
C 	 -85.3761 	 -29.0543 	 -54.9817 	 
C 	 -84.1773 	 -29.4227 	 -54.2618 	 
C 	 -83.2084 	 -28.4393 	 -54.4763 	 
H 	 -86.2467 	 -29.6441 	 -55.1937 	 
C 	 -83.9985 	 -30.7753 	 -53.6441 	 
H 	 -84.9944 	 -31.0737 	 -53.3462 	 
H 	 -83.3702 	 -30.5815 	 -52.7744 	 
C 	 -83.2415 	 -31.8296 	 -54.4769 	 
H 	 -83.78 	 -31.9926 	 -55.4036 	 
H 	 -83.3463 	 -32.7743 	 -54.0083 	 
C 	 -81.8143 	 -31.637 	 -54.8342 	 
H 	 -81.2708 	 -31.2772 	 -53.9278 	 
H 	 -81.6927 	 -30.7768 	 -55.4544 	 
H 	 -81.3103 	 -32.5146 	 -55.1935 	 
H 	 -78.7109 	 -26.4433 	 -52.9946 	 
H 	 -86.3706 	 -27.4599 	 -55.9681 	 
