34

S 	 -138.135 	 9.26291 	 -13.4866 	 
C 	 -138.053 	 9.98465 	 -11.9572 	 
C 	 -136.748 	 10.4584 	 -11.7068 	 
C 	 -135.84 	 10.2745 	 -12.7931 	 
C 	 -136.4 	 9.57865 	 -13.8622 	 
H 	 -134.789 	 10.4819 	 -12.8412 	 
C 	 -136.238 	 11.1761 	 -10.4468 	 
H 	 -135.348 	 10.8044 	 -10.2504 	 
H 	 -136.878 	 10.9781 	 -9.6329 	 
C 	 -136.326 	 12.7235 	 -10.5043 	 
H 	 -135.964 	 12.9363 	 -9.43953 	 
H 	 -135.646 	 13.0862 	 -11.2692 	 
C 	 -137.731 	 13.199 	 -10.651 	 
H 	 -138.075 	 13.0744 	 -11.7107 	 
H 	 -138.481 	 12.5542 	 -10.0834 	 
H 	 -137.873 	 14.1871 	 -10.2925 	 
S 	 -135.768 	 10.1651 	 -16.4077 	 
C 	 -134.822 	 9.05764 	 -17.31 	 
C 	 -134.317 	 8.08759 	 -16.5536 	 
C 	 -134.962 	 7.99681 	 -15.2612 	 
C 	 -135.775 	 9.10134 	 -15.0467 	 
H 	 -133.654 	 7.32903 	 -16.9703 	 
C 	 -134.799 	 6.92069 	 -14.2003 	 
H 	 -134.786 	 7.40647 	 -13.2384 	 
H 	 -133.792 	 6.53875 	 -14.3303 	 
C 	 -135.814 	 5.7873 	 -14.3042 	 
H 	 -135.648 	 5.24054 	 -15.1602 	 
H 	 -136.762 	 6.21287 	 -14.3939 	 
C 	 -135.835 	 4.76397 	 -13.1835 	 
H 	 -136.412 	 3.82675 	 -13.4038 	 
H 	 -136.438 	 5.31929 	 -12.3904 	 
H 	 -134.792 	 4.49059 	 -12.9013 	 
H 	 -138.822 	 9.97136 	 -11.1972 	 
H 	 -134.544 	 9.30623 	 -18.306 	 
