34

S 	 -79.1248 	 -43.4497 	 -92.2155 	 
C 	 -78.332 	 -41.8246 	 -92.5317 	 
C 	 -79.2169 	 -40.9978 	 -93.1679 	 
C 	 -80.5139 	 -41.6019 	 -93.2983 	 
C 	 -80.6688 	 -42.8708 	 -92.7176 	 
H 	 -81.3653 	 -41.1458 	 -93.6901 	 
C 	 -78.993 	 -39.5538 	 -93.5738 	 
H 	 -77.9529 	 -39.3871 	 -93.5276 	 
H 	 -79.5655 	 -39.0756 	 -92.7629 	 
C 	 -79.5602 	 -38.9384 	 -94.8989 	 
H 	 -79.0056 	 -39.4295 	 -95.7292 	 
H 	 -80.6312 	 -39.1702 	 -94.9937 	 
C 	 -79.4274 	 -37.3438 	 -95.0147 	 
H 	 -78.3832 	 -37.0101 	 -95.0335 	 
H 	 -79.8003 	 -37.0103 	 -95.9813 	 
H 	 -79.9872 	 -36.8551 	 -94.1642 	 
S 	 -81.7758 	 -45.313 	 -93.503 	 
C 	 -83.4844 	 -45.469 	 -93.0389 	 
C 	 -84.045 	 -44.3556 	 -92.4268 	 
C 	 -83.0916 	 -43.3107 	 -92.3159 	 
C 	 -81.8691 	 -43.7046 	 -92.7755 	 
H 	 -85.0526 	 -44.4105 	 -92.0899 	 
C 	 -83.4592 	 -42.0695 	 -91.5223 	 
H 	 -84.489 	 -41.912 	 -91.4575 	 
H 	 -83.0179 	 -41.2409 	 -92.0879 	 
C 	 -82.9576 	 -42.0511 	 -90.089 	 
H 	 -83.1459 	 -41.1354 	 -89.58 	 
H 	 -81.8388 	 -42.1058 	 -89.9895 	 
C 	 -83.6081 	 -43.1721 	 -89.1962 	 
H 	 -82.8035 	 -43.4204 	 -88.4838 	 
H 	 -83.8056 	 -44.0958 	 -89.814 	 
H 	 -84.527 	 -42.8428 	 -88.7225 	 
H 	 -77.2765 	 -41.6439 	 -92.4236 	 
H 	 -84.2222 	 -46.2971 	 -93.1175 	 
