34

S 	 -59.2432 	 13.3408 	 -107.44 	 
C 	 -60.4946 	 12.2964 	 -107.815 	 
C 	 -61.3682 	 12.8045 	 -108.745 	 
C 	 -60.9667 	 14.1437 	 -109.159 	 
C 	 -59.8722 	 14.6455 	 -108.472 	 
H 	 -61.5107 	 14.7089 	 -109.918 	 
C 	 -62.4056 	 12.0115 	 -109.468 	 
H 	 -63.2055 	 12.6935 	 -109.66 	 
H 	 -62.652 	 11.1802 	 -108.81 	 
C 	 -62.0065 	 11.4215 	 -110.832 	 
H 	 -61.3887 	 12.1447 	 -111.358 	 
H 	 -61.2764 	 10.6348 	 -110.713 	 
C 	 -63.1272 	 10.8388 	 -111.713 	 
H 	 -63.8819 	 11.5387 	 -112.04 	 
H 	 -62.8883 	 10.3828 	 -112.676 	 
H 	 -63.5485 	 10.0286 	 -111.128 	 
S 	 -57.5959 	 15.9865 	 -107.726 	 
C 	 -57.2083 	 17.6276 	 -108.279 	 
C 	 -58.2388 	 18.037 	 -109.135 	 
C 	 -59.2414 	 17.0248 	 -109.416 	 
C 	 -59.0864 	 15.8739 	 -108.673 	 
H 	 -58.2577 	 19.0738 	 -109.5 	 
C 	 -60.4448 	 17.3084 	 -110.304 	 
H 	 -60.8059 	 18.3897 	 -110.287 	 
H 	 -61.3113 	 16.6912 	 -109.948 	 
C 	 -60.1637 	 16.8887 	 -111.739 	 
H 	 -59.9399 	 15.8421 	 -111.694 	 
H 	 -59.242 	 17.3816 	 -111.988 	 
C 	 -61.3846 	 17.1644 	 -112.722 	 
H 	 -61.0034 	 17.272 	 -113.724 	 
H 	 -61.7799 	 18.1881 	 -112.642 	 
H 	 -62.2281 	 16.4327 	 -112.692 	 
H 	 -60.4544 	 11.2001 	 -107.51 	 
H 	 -56.4637 	 18.3499 	 -107.989 	 
