34

S 	 39.6323 	 -21.997 	 -116.08 	 
C 	 41.1776 	 -21.9458 	 -116.755 	 
C 	 42.1703 	 -22.0251 	 -115.753 	 
C 	 41.5973 	 -21.8387 	 -114.478 	 
C 	 40.1979 	 -21.8303 	 -114.498 	 
H 	 42.1133 	 -21.7854 	 -113.536 	 
C 	 43.6883 	 -22.1241 	 -115.951 	 
H 	 44.0373 	 -22.0586 	 -114.934 	 
H 	 44.0153 	 -21.2406 	 -116.455 	 
C 	 44.1489 	 -23.3856 	 -116.706 	 
H 	 43.588 	 -23.5474 	 -117.641 	 
H 	 45.1446 	 -23.1977 	 -116.946 	 
C 	 44.0676 	 -24.6674 	 -115.888 	 
H 	 44.7062 	 -25.4363 	 -116.322 	 
H 	 44.2588 	 -24.4321 	 -114.889 	 
H 	 43.058 	 -25.0715 	 -116.066 	 
S 	 37.9983 	 -20.4168 	 -113.593 	 
C 	 37.2831 	 -20.9519 	 -112.141 	 
C 	 38.0563 	 -21.8396 	 -111.468 	 
C 	 39.1855 	 -22.319 	 -112.229 	 
C 	 39.3206 	 -21.5942 	 -113.382 	 
H 	 37.7682 	 -22.1038 	 -110.477 	 
C 	 40.1481 	 -23.479 	 -111.834 	 
H 	 40.2536 	 -23.502 	 -110.744 	 
H 	 41.1694 	 -23.378 	 -112.225 	 
C 	 39.8286 	 -24.9277 	 -112.219 	 
H 	 38.992 	 -25.2951 	 -111.701 	 
H 	 40.5449 	 -25.5926 	 -111.741 	 
C 	 39.7667 	 -25.2621 	 -113.692 	 
H 	 38.9008 	 -24.8123 	 -114.204 	 
H 	 39.6921 	 -26.3337 	 -113.834 	 
H 	 40.6396 	 -24.8177 	 -114.215 	 
H 	 41.3824 	 -21.9812 	 -117.817 	 
H 	 36.3792 	 -20.5813 	 -111.705 	 
