34

S 	 -47.8099 	 23.482 	 21.5088 	 
C 	 -49.3954 	 23.742 	 22.2018 	 
C 	 -49.739 	 22.7051 	 23.0942 	 
C 	 -48.6239 	 21.9241 	 23.4207 	 
C 	 -47.4706 	 22.1844 	 22.6501 	 
H 	 -48.6834 	 21.1213 	 24.1106 	 
C 	 -51.1553 	 22.5216 	 23.6895 	 
H 	 -51.3298 	 21.3984 	 23.9687 	 
H 	 -51.7944 	 22.6459 	 22.8614 	 
C 	 -51.642 	 23.4006 	 24.8482 	 
H 	 -51.5141 	 24.3767 	 24.5234 	 
H 	 -52.6505 	 22.9962 	 24.9641 	 
C 	 -50.7911 	 23.0084 	 26.0825 	 
H 	 -51.133 	 23.6127 	 26.9182 	 
H 	 -51.0399 	 22.0768 	 26.4426 	 
H 	 -49.6915 	 23.1354 	 25.9218 	 
S 	 -45.9559 	 20.9036 	 24.4351 	 
C 	 -44.3168 	 20.3708 	 23.9894 	 
C 	 -43.9277 	 20.7791 	 22.7668 	 
C 	 -45.0045 	 21.4222 	 22.0657 	 
C 	 -46.1769 	 21.5342 	 22.8222 	 
H 	 -42.9185 	 20.6266 	 22.3597 	 
C 	 -44.8285 	 21.9024 	 20.6795 	 
H 	 -43.7628 	 21.9724 	 20.4312 	 
H 	 -45.1097 	 22.9295 	 20.6248 	 
C 	 -45.6293 	 21.1051 	 19.6323 	 
H 	 -46.7039 	 21.0816 	 20.0037 	 
H 	 -45.2339 	 20.1305 	 19.6217 	 
C 	 -45.5898 	 21.7741 	 18.1899 	 
H 	 -46.3133 	 22.613 	 18.248 	 
H 	 -46.1451 	 21.1104 	 17.4623 	 
H 	 -44.6595 	 22.1918 	 17.7407 	 
H 	 -50.1285 	 24.3756 	 21.753 	 
H 	 -43.5666 	 19.8933 	 24.5809 	 
