34

S 	 -115.315 	 23.8611 	 -116.683 	 
C 	 -116.87 	 24.1347 	 -117.292 	 
C 	 -117.728 	 24.6662 	 -116.443 	 
C 	 -117.155 	 24.8259 	 -115.136 	 
C 	 -115.858 	 24.3188 	 -115.022 	 
H 	 -117.637 	 25.2176 	 -114.255 	 
C 	 -119.103 	 25.1535 	 -116.778 	 
H 	 -119.301 	 24.9919 	 -117.8 	 
H 	 -119.112 	 26.2752 	 -116.713 	 
C 	 -120.197 	 24.4855 	 -115.88 	 
H 	 -120.041 	 24.7471 	 -114.817 	 
H 	 -121.115 	 25.0594 	 -116.078 	 
C 	 -120.324 	 23.0054 	 -116.3 	 
H 	 -119.454 	 22.3494 	 -116.091 	 
H 	 -121.198 	 22.5449 	 -115.825 	 
H 	 -120.598 	 22.901 	 -117.351 	 
S 	 -113.44 	 25.3732 	 -114.397 	 
C 	 -112.78 	 25.179 	 -112.795 	 
C 	 -113.644 	 24.5348 	 -111.941 	 
C 	 -114.864 	 24.006 	 -112.605 	 
C 	 -114.895 	 24.4814 	 -113.921 	 
H 	 -113.353 	 24.4295 	 -110.933 	 
C 	 -116.026 	 23.2602 	 -111.899 	 
H 	 -116.347 	 22.388 	 -112.498 	 
H 	 -116.788 	 24.1062 	 -111.89 	 
C 	 -115.877 	 22.7329 	 -110.503 	 
H 	 -116.796 	 22.3849 	 -110.214 	 
H 	 -115.599 	 23.4974 	 -109.789 	 
C 	 -114.904 	 21.5939 	 -110.477 	 
H 	 -115.21 	 20.7133 	 -109.982 	 
H 	 -114.002 	 21.8389 	 -109.955 	 
H 	 -114.532 	 21.2846 	 -111.476 	 
H 	 -117.037 	 24.0698 	 -118.358 	 
H 	 -111.79 	 25.7203 	 -112.574 	 
