34

S 	 -33.2941 	 -34.7337 	 -96.496 	 
C 	 -33.8516 	 -34.3262 	 -98.0581 	 
C 	 -33.5313 	 -33.0111 	 -98.3846 	 
C 	 -32.9142 	 -32.351 	 -97.2986 	 
C 	 -32.6276 	 -33.2116 	 -96.2897 	 
H 	 -32.7018 	 -31.2556 	 -97.3043 	 
C 	 -33.8075 	 -32.261 	 -99.6445 	 
H 	 -33.9747 	 -31.227 	 -99.4169 	 
H 	 -34.689 	 -32.5436 	 -100.246 	 
C 	 -32.6557 	 -32.2673 	 -100.718 	 
H 	 -32.5343 	 -33.2751 	 -101.289 	 
H 	 -32.8868 	 -31.5688 	 -101.531 	 
C 	 -31.3073 	 -31.9384 	 -100.185 	 
H 	 -30.899 	 -32.756 	 -99.64 	 
H 	 -30.5959 	 -31.7704 	 -100.982 	 
H 	 -31.3586 	 -31.062 	 -99.625 	 
S 	 -31.9915 	 -34.0645 	 -93.7772 	 
C 	 -30.5148 	 -33.5158 	 -93.086 	 
C 	 -29.9978 	 -32.4082 	 -93.6858 	 
C 	 -30.6573 	 -32.178 	 -94.9624 	 
C 	 -31.7164 	 -33.0118 	 -95.186 	 
H 	 -29.1393 	 -31.9608 	 -93.281 	 
C 	 -30.1496 	 -30.994 	 -95.8436 	 
H 	 -30.5166 	 -31.1108 	 -96.8784 	 
H 	 -29.1281 	 -30.975 	 -95.9677 	 
C 	 -30.6773 	 -29.5455 	 -95.5745 	 
H 	 -30.6248 	 -29.4425 	 -94.432 	 
H 	 -31.6546 	 -29.4175 	 -95.9271 	 
C 	 -29.8083 	 -28.4317 	 -96.2875 	 
H 	 -30.0917 	 -27.468 	 -95.8513 	 
H 	 -29.9037 	 -28.4499 	 -97.4275 	 
H 	 -28.7097 	 -28.5517 	 -95.9761 	 
H 	 -34.2523 	 -34.9719 	 -98.815 	 
H 	 -30.1554 	 -33.9613 	 -92.1263 	 
