34

S 	 -88.6266 	 -33.4677 	 -62.6339 	 
C 	 -89.4826 	 -34.5353 	 -63.6767 	 
C 	 -90.3237 	 -35.3548 	 -62.9044 	 
C 	 -90.1575 	 -35.1878 	 -61.4971 	 
C 	 -89.3007 	 -34.1127 	 -61.2172 	 
H 	 -90.6958 	 -35.7182 	 -60.6711 	 
C 	 -91.1779 	 -36.4702 	 -63.503 	 
H 	 -92.1561 	 -36.0784 	 -63.8387 	 
H 	 -91.4018 	 -37.1783 	 -62.7065 	 
C 	 -90.5277 	 -37.2224 	 -64.6926 	 
H 	 -89.9473 	 -36.5903 	 -65.2571 	 
H 	 -89.8357 	 -37.9854 	 -64.3793 	 
C 	 -91.5537 	 -37.7819 	 -65.7696 	 
H 	 -92.2146 	 -38.5976 	 -65.4764 	 
H 	 -92.1239 	 -36.9662 	 -66.2542 	 
H 	 -90.8931 	 -38.1645 	 -66.5156 	 
S 	 -87.275 	 -34.5509 	 -59.3031 	 
C 	 -87.1873 	 -33.4286 	 -57.9503 	 
C 	 -88.4048 	 -32.7485 	 -57.7878 	 
C 	 -89.1763 	 -32.819 	 -58.9461 	 
C 	 -88.7164 	 -33.715 	 -59.9281 	 
H 	 -88.5979 	 -32.182 	 -56.9261 	 
C 	 -90.4098 	 -31.9503 	 -59.1665 	 
H 	 -90.6975 	 -32.0996 	 -60.221 	 
H 	 -90.1646 	 -30.9284 	 -59.0688 	 
C 	 -91.591 	 -32.161 	 -58.27 	 
H 	 -92.3461 	 -31.4614 	 -58.5554 	 
H 	 -91.2497 	 -32.0059 	 -57.2858 	 
C 	 -92.0632 	 -33.6418 	 -58.2222 	 
H 	 -92.7216 	 -33.7025 	 -57.3293 	 
H 	 -91.2965 	 -34.3672 	 -58.1234 	 
H 	 -92.6768 	 -33.8552 	 -59.1564 	 
H 	 -89.4458 	 -34.6594 	 -64.6954 	 
H 	 -86.4865 	 -33.5494 	 -57.2298 	 
