34

S 	 -135.067 	 31.7651 	 -18.4146 	 
C 	 -135.175 	 30.6059 	 -19.7091 	 
C 	 -135.994 	 29.5274 	 -19.3507 	 
C 	 -136.729 	 29.8094 	 -18.2138 	 
C 	 -136.393 	 31.0364 	 -17.5743 	 
H 	 -137.467 	 29.1859 	 -17.7535 	 
C 	 -136.172 	 28.2663 	 -20.1838 	 
H 	 -136.611 	 27.4578 	 -19.5794 	 
H 	 -135.173 	 28.019 	 -20.4458 	 
C 	 -136.96 	 28.4694 	 -21.4508 	 
H 	 -138.019 	 28.5577 	 -21.1857 	 
H 	 -136.671 	 29.4216 	 -21.8537 	 
C 	 -136.848 	 27.3108 	 -22.4146 	 
H 	 -137.173 	 27.6092 	 -23.4402 	 
H 	 -135.835 	 26.8893 	 -22.6318 	 
H 	 -137.381 	 26.432 	 -21.9998 	 
S 	 -138.574 	 30.9359 	 -15.8806 	 
C 	 -138.618 	 31.8697 	 -14.3729 	 
C 	 -137.47 	 32.6095 	 -14.2556 	 
C 	 -136.54 	 32.5005 	 -15.3878 	 
C 	 -137.004 	 31.5377 	 -16.3286 	 
H 	 -137.264 	 33.1301 	 -13.3444 	 
C 	 -135.172 	 33.1537 	 -15.253 	 
H 	 -134.421 	 32.5917 	 -15.7793 	 
H 	 -135 	 33.1501 	 -14.2038 	 
C 	 -135.011 	 34.6455 	 -15.6906 	 
H 	 -135.743 	 35.1936 	 -15.0774 	 
H 	 -135.299 	 34.9046 	 -16.7544 	 
C 	 -133.657 	 35.2888 	 -15.271 	 
H 	 -132.836 	 35.0631 	 -15.9348 	 
H 	 -133.438 	 35.122 	 -14.2322 	 
H 	 -133.858 	 36.4074 	 -15.2994 	 
H 	 -134.694 	 30.6377 	 -20.6707 	 
H 	 -139.333 	 31.7615 	 -13.5673 	 
