34

S 	 -101.741 	 41.174 	 -87.4009 	 
C 	 -103.071 	 41.2657 	 -88.6131 	 
C 	 -103.588 	 42.5577 	 -88.6904 	 
C 	 -102.791 	 43.4672 	 -87.9334 	 
C 	 -101.854 	 42.8752 	 -87.149 	 
H 	 -103.12 	 44.4924 	 -87.956 	 
C 	 -104.825 	 42.9703 	 -89.3711 	 
H 	 -105.099 	 42.3281 	 -90.144 	 
H 	 -104.626 	 43.935 	 -89.8355 	 
C 	 -105.991 	 42.8997 	 -88.4266 	 
H 	 -106.865 	 43.0762 	 -89.036 	 
H 	 -106.145 	 41.9472 	 -87.9486 	 
C 	 -105.935 	 43.9899 	 -87.4274 	 
H 	 -105.804 	 45.0323 	 -87.8398 	 
H 	 -106.918 	 43.9675 	 -87.0135 	 
H 	 -105.157 	 43.7682 	 -86.6496 	 
S 	 -99.2877 	 42.8561 	 -86.1426 	 
C 	 -98.7114 	 44.0779 	 -85.0054 	 
C 	 -99.7722 	 44.9604 	 -84.6837 	 
C 	 -100.995 	 44.6846 	 -85.405 	 
C 	 -100.888 	 43.6071 	 -86.285 	 
H 	 -99.6164 	 45.8586 	 -83.9664 	 
C 	 -102.237 	 45.5035 	 -85.0643 	 
H 	 -102.787 	 46.015 	 -85.857 	 
H 	 -101.821 	 46.2604 	 -84.3882 	 
C 	 -103.275 	 44.7617 	 -84.2507 	 
H 	 -102.753 	 44.234 	 -83.5115 	 
H 	 -103.693 	 43.9943 	 -84.8307 	 
C 	 -104.378 	 45.7243 	 -83.63 	 
H 	 -103.821 	 46.4434 	 -82.9884 	 
H 	 -104.964 	 45.1777 	 -82.9498 	 
H 	 -105.068 	 46.2148 	 -84.2996 	 
H 	 -103.589 	 40.4904 	 -89.1955 	 
H 	 -97.6676 	 44.1558 	 -84.6895 	 
