34

S 	 -136.56 	 71.4349 	 -54.342 	 
C 	 -135.636 	 70.7531 	 -55.6565 	 
C 	 -134.781 	 69.7702 	 -55.2525 	 
C 	 -134.756 	 69.5697 	 -53.8167 	 
C 	 -135.736 	 70.3535 	 -53.2603 	 
H 	 -134.129 	 68.9142 	 -53.2051 	 
C 	 -133.775 	 69.0853 	 -56.2116 	 
H 	 -134.076 	 69.2037 	 -57.2813 	 
H 	 -133.756 	 67.9847 	 -55.9883 	 
C 	 -132.277 	 69.5436 	 -55.9699 	 
H 	 -132.063 	 69.7156 	 -54.8701 	 
H 	 -131.653 	 68.8074 	 -56.4932 	 
C 	 -131.969 	 70.9244 	 -56.711 	 
H 	 -130.961 	 71.1652 	 -56.5074 	 
H 	 -131.927 	 70.7777 	 -57.7105 	 
H 	 -132.624 	 71.7501 	 -56.378 	 
S 	 -135.144 	 71.732 	 -50.9601 	 
C 	 -135.533 	 71.0787 	 -49.3853 	 
C 	 -136.536 	 70.116 	 -49.5574 	 
C 	 -136.771 	 69.7418 	 -50.9178 	 
C 	 -135.942 	 70.4644 	 -51.782 	 
H 	 -137.165 	 69.8959 	 -48.6968 	 
C 	 -137.794 	 68.6855 	 -51.3172 	 
H 	 -137.439 	 68.0739 	 -52.1544 	 
H 	 -138.672 	 69.1363 	 -51.811 	 
C 	 -138.292 	 67.6556 	 -50.3016 	 
H 	 -138.578 	 68.1754 	 -49.312 	 
H 	 -137.493 	 66.9939 	 -50.0185 	 
C 	 -139.356 	 66.6774 	 -50.7812 	 
H 	 -139.19 	 65.6957 	 -50.43 	 
H 	 -139.409 	 66.6362 	 -51.8478 	 
H 	 -140.324 	 66.9661 	 -50.3693 	 
H 	 -135.713 	 71.0334 	 -56.7252 	 
H 	 -135.26 	 71.4282 	 -48.4356 	 
