34

S 	 -36.7334 	 -48.9803 	 -79.4348 	 
C 	 -35.3689 	 -49.7273 	 -80.2468 	 
C 	 -34.1819 	 -49.3882 	 -79.6016 	 
C 	 -34.3445 	 -48.6295 	 -78.3609 	 
C 	 -35.7023 	 -48.4415 	 -78.1071 	 
H 	 -33.5189 	 -48.245 	 -77.7431 	 
C 	 -32.8109 	 -49.7258 	 -80.1079 	 
H 	 -32.5954 	 -49.2019 	 -81.0973 	 
H 	 -32.902 	 -50.7403 	 -80.3078 	 
C 	 -31.5878 	 -49.5064 	 -79.1072 	 
H 	 -31.4531 	 -48.4039 	 -79.0182 	 
H 	 -31.8551 	 -49.9452 	 -78.1414 	 
C 	 -30.3069 	 -50.1162 	 -79.5952 	 
H 	 -30.0174 	 -49.7336 	 -80.5612 	 
H 	 -29.4427 	 -49.8504 	 -78.9685 	 
H 	 -30.342 	 -51.2561 	 -79.597 	 
S 	 -37.252 	 -48.9178 	 -75.9281 	 
C 	 -37.2621 	 -47.728 	 -74.6106 	 
C 	 -36.555 	 -46.5881 	 -74.9501 	 
C 	 -35.8331 	 -46.727 	 -76.158 	 
C 	 -36.2574 	 -47.8755 	 -76.8821 	 
H 	 -36.6571 	 -45.8142 	 -74.2058 	 
C 	 -35.0409 	 -45.5627 	 -76.6237 	 
H 	 -33.9821 	 -45.7163 	 -76.4651 	 
H 	 -35.2314 	 -44.6493 	 -76.0576 	 
C 	 -35.4138 	 -45.1955 	 -78.0653 	 
H 	 -36.5173 	 -45.2001 	 -78.0977 	 
H 	 -35.1017 	 -45.9418 	 -78.8545 	 
C 	 -34.6576 	 -43.8986 	 -78.5462 	 
H 	 -33.7116 	 -44.1464 	 -79.0646 	 
H 	 -34.5312 	 -43.1002 	 -77.7834 	 
H 	 -35.3572 	 -43.5357 	 -79.2624 	 
H 	 -35.4199 	 -50.3179 	 -81.2485 	 
H 	 -37.9698 	 -47.7501 	 -73.7548 	 
