34

S 	 -54.2197 	 6.96877 	 22.583 	 
C 	 -53.7774 	 7.21728 	 20.9522 	 
C 	 -54.8581 	 7.48422 	 20.1716 	 
C 	 -56.047 	 7.34365 	 20.9146 	 
C 	 -55.8836 	 7.0453 	 22.2454 	 
H 	 -57.0312 	 7.48278 	 20.5158 	 
C 	 -54.8467 	 7.81023 	 18.7042 	 
H 	 -54.5884 	 6.90626 	 18.1045 	 
H 	 -54.0704 	 8.54881 	 18.6282 	 
C 	 -56.1528 	 8.38071 	 18.0536 	 
H 	 -56.8348 	 7.56167 	 17.9952 	 
H 	 -56.7522 	 9.02123 	 18.7286 	 
C 	 -55.9465 	 9.08491 	 16.6961 	 
H 	 -55.9456 	 8.39691 	 15.9088 	 
H 	 -56.7372 	 9.81352 	 16.4923 	 
H 	 -54.9481 	 9.59102 	 16.6776 	 
S 	 -57.5426 	 8.64674 	 23.8244 	 
C 	 -58.8941 	 7.9708 	 24.6494 	 
C 	 -58.8921 	 6.59496 	 24.609 	 
C 	 -57.8109 	 6.08824 	 23.8654 	 
C 	 -56.9402 	 7.09081 	 23.318 	 
H 	 -59.7254 	 5.97098 	 25.0473 	 
C 	 -57.5423 	 4.57032 	 23.7838 	 
H 	 -58.0625 	 4.23322 	 24.6641 	 
H 	 -56.4727 	 4.53377 	 24.0291 	 
C 	 -57.7786 	 3.68172 	 22.5038 	 
H 	 -57.3967 	 2.66161 	 22.7496 	 
H 	 -57.1213 	 4.19897 	 21.7505 	 
C 	 -59.2377 	 3.82828 	 22.0025 	 
H 	 -59.9952 	 3.36139 	 22.672 	 
H 	 -59.4179 	 3.35202 	 20.9896 	 
H 	 -59.4361 	 4.88205 	 21.9107 	 
H 	 -52.7888 	 7.36579 	 20.6605 	 
H 	 -59.7055 	 8.46273 	 25.2925 	 
