34

S 	 -134.618 	 17.5974 	 -17.218 	 
C 	 -133.616 	 16.3256 	 -16.4823 	 
C 	 -132.493 	 16.1685 	 -17.2412 	 
C 	 -132.224 	 17.1399 	 -18.2156 	 
C 	 -133.338 	 17.8954 	 -18.4788 	 
H 	 -131.379 	 17.1934 	 -18.7968 	 
C 	 -131.474 	 15.0635 	 -16.895 	 
H 	 -131.824 	 14.1813 	 -16.3468 	 
H 	 -130.763 	 15.6698 	 -16.3052 	 
C 	 -130.641 	 14.4925 	 -18.1239 	 
H 	 -130.207 	 15.3149 	 -18.5646 	 
H 	 -129.746 	 13.8617 	 -17.7967 	 
C 	 -131.316 	 13.5084 	 -19.0761 	 
H 	 -131.459 	 12.4991 	 -18.6289 	 
H 	 -132.202 	 13.9238 	 -19.5842 	 
H 	 -130.645 	 13.2113 	 -19.8657 	 
S 	 -133.551 	 20.6291 	 -19.097 	 
C 	 -133.124 	 21.2258 	 -20.7373 	 
C 	 -132.86 	 20.1289 	 -21.5354 	 
C 	 -133.019 	 18.8549 	 -20.8581 	 
C 	 -133.364 	 18.9751 	 -19.5124 	 
H 	 -132.587 	 20.3263 	 -22.6314 	 
C 	 -132.894 	 17.5828 	 -21.6746 	 
H 	 -133.471 	 17.6958 	 -22.5869 	 
H 	 -133.516 	 16.8175 	 -21.2442 	 
C 	 -131.468 	 17.1846 	 -22.0567 	 
H 	 -130.843 	 17.0447 	 -21.1648 	 
H 	 -131.139 	 17.9562 	 -22.7687 	 
C 	 -131.492 	 15.8218 	 -22.8192 	 
H 	 -131.804 	 15.0397 	 -22.1191 	 
H 	 -130.559 	 15.4775 	 -23.1108 	 
H 	 -132.142 	 15.756 	 -23.7402 	 
H 	 -133.926 	 15.7933 	 -15.5967 	 
H 	 -133.039 	 22.3215 	 -20.9904 	 
