34

S 	 -41.7741 	 16.9416 	 -102.693 	 
C 	 -42.6652 	 17.7292 	 -101.42 	 
C 	 -43.224 	 18.8854 	 -101.886 	 
C 	 -43.1189 	 19.0527 	 -103.289 	 
C 	 -42.4512 	 18.0096 	 -103.841 	 
H 	 -43.5285 	 19.7936 	 -103.939 	 
C 	 -43.8747 	 19.9348 	 -101.025 	 
H 	 -44.0352 	 20.8778 	 -101.522 	 
H 	 -43.2017 	 20.1498 	 -100.152 	 
C 	 -45.1866 	 19.4821 	 -100.405 	 
H 	 -44.9778 	 18.5568 	 -99.8019 	 
H 	 -45.5244 	 20.1905 	 -99.6241 	 
C 	 -46.2855 	 19.1973 	 -101.46 	 
H 	 -46.7176 	 20.0575 	 -101.88 	 
H 	 -45.8858 	 18.4013 	 -102.157 	 
H 	 -47.0855 	 18.7741 	 -100.864 	 
S 	 -40.9367 	 17.9051 	 -106.061 	 
C 	 -41.605 	 17.6406 	 -107.622 	 
C 	 -42.9335 	 17.3142 	 -107.536 	 
C 	 -43.4469 	 17.2416 	 -106.18 	 
C 	 -42.4536 	 17.7068 	 -105.258 	 
H 	 -43.5038 	 17.1166 	 -108.434 	 
C 	 -44.8382 	 16.8334 	 -105.812 	 
H 	 -45.5228 	 17.3959 	 -106.426 	 
H 	 -44.9225 	 17.1736 	 -104.813 	 
C 	 -45.1807 	 15.3 	 -105.787 	 
H 	 -45.2592 	 14.9993 	 -106.841 	 
H 	 -46.2031 	 15.1745 	 -105.418 	 
C 	 -44.266 	 14.4589 	 -104.923 	 
H 	 -43.2667 	 14.2902 	 -105.294 	 
H 	 -44.7089 	 13.4356 	 -104.819 	 
H 	 -44.1291 	 14.9453 	 -103.992 	 
H 	 -42.688 	 17.4115 	 -100.402 	 
H 	 -41.0929 	 17.8628 	 -108.54 	 
