34

S 	 -132.467 	 25.9777 	 -21.736 	 
C 	 -133.403 	 24.6759 	 -20.9489 	 
C 	 -132.884 	 23.4723 	 -21.305 	 
C 	 -131.755 	 23.6004 	 -22.2475 	 
C 	 -131.363 	 24.8894 	 -22.4925 	 
H 	 -131.324 	 22.7868 	 -22.7315 	 
C 	 -133.581 	 22.1518 	 -21.0528 	 
H 	 -133.729 	 21.9858 	 -19.9782 	 
H 	 -132.865 	 21.3963 	 -21.3799 	 
C 	 -134.919 	 21.8611 	 -21.7188 	 
H 	 -135.654 	 22.582 	 -21.4858 	 
H 	 -134.696 	 21.9842 	 -22.8002 	 
C 	 -135.453 	 20.442 	 -21.3815 	 
H 	 -134.717 	 19.7248 	 -21.5997 	 
H 	 -135.702 	 20.2966 	 -20.3679 	 
H 	 -136.374 	 20.3061 	 -21.962 	 
S 	 -130.461 	 26.9196 	 -24.1221 	 
C 	 -128.936 	 26.7687 	 -24.8203 	 
C 	 -128.216 	 25.6753 	 -24.3445 	 
C 	 -128.94 	 24.8262 	 -23.4393 	 
C 	 -130.178 	 25.3831 	 -23.2337 	 
H 	 -127.243 	 25.4552 	 -24.6591 	 
C 	 -128.263 	 23.6676 	 -22.8365 	 
H 	 -129.02 	 23.0973 	 -22.2376 	 
H 	 -127.469 	 24.057 	 -22.2165 	 
C 	 -127.57 	 22.6808 	 -23.7673 	 
H 	 -127.054 	 21.8958 	 -23.1942 	 
H 	 -126.805 	 23.1355 	 -24.27 	 
C 	 -128.516 	 22.0207 	 -24.6632 	 
H 	 -128.032 	 21.3851 	 -25.4336 	 
H 	 -129.136 	 22.7445 	 -25.1308 	 
H 	 -129.185 	 21.3528 	 -24.1338 	 
H 	 -134.364 	 24.7967 	 -20.4479 	 
H 	 -128.576 	 27.5388 	 -25.5243 	 
