34

S 	 -110.593 	 50.405 	 -73.7346 	 
C 	 -111.345 	 50.701 	 -75.2981 	 
C 	 -110.818 	 51.7865 	 -75.9095 	 
C 	 -109.894 	 52.4899 	 -75.0115 	 
C 	 -109.871 	 52.0143 	 -73.735 	 
H 	 -109.319 	 53.3705 	 -75.2562 	 
C 	 -111.166 	 52.3037 	 -77.287 	 
H 	 -110.535 	 51.7175 	 -78.019 	 
H 	 -110.892 	 53.3763 	 -77.3697 	 
C 	 -112.66 	 52.0868 	 -77.7271 	 
H 	 -112.843 	 52.4107 	 -78.7867 	 
H 	 -112.823 	 51.0923 	 -77.7905 	 
C 	 -113.71 	 52.7267 	 -76.7361 	 
H 	 -114.771 	 52.6546 	 -77.0906 	 
H 	 -113.736 	 52.1587 	 -75.8394 	 
H 	 -113.444 	 53.7002 	 -76.4398 	 
S 	 -108.624 	 51.6071 	 -71.305 	 
C 	 -108.509 	 52.9321 	 -70.2406 	 
C 	 -108.708 	 54.1047 	 -70.9055 	 
C 	 -109.22 	 53.9859 	 -72.2762 	 
C 	 -109.38 	 52.6093 	 -72.5265 	 
H 	 -108.474 	 55.0891 	 -70.4564 	 
C 	 -109.587 	 55.2254 	 -73.11 	 
H 	 -108.903 	 55.3145 	 -73.9548 	 
H 	 -109.18 	 56.0661 	 -72.4707 	 
C 	 -111.065 	 55.4651 	 -73.418 	 
H 	 -111.66 	 55.5837 	 -72.4349 	 
H 	 -111.421 	 54.5605 	 -74.0242 	 
C 	 -111.296 	 56.5988 	 -74.3157 	 
H 	 -111 	 56.46 	 -75.3418 	 
H 	 -110.826 	 57.507 	 -73.937 	 
H 	 -112.358 	 56.7615 	 -74.2605 	 
H 	 -111.983 	 50.029 	 -75.7749 	 
H 	 -107.957 	 52.9028 	 -69.2824 	 
