34

S 	 -28.0714 	 16.0703 	 7.53139 	 
C 	 -29.8102 	 15.6593 	 7.50119 	 
C 	 -30.3346 	 15.5768 	 8.78278 	 
C 	 -29.3882 	 15.969 	 9.82285 	 
C 	 -28.1443 	 16.3165 	 9.27334 	 
H 	 -29.6201 	 16.1521 	 10.8997 	 
C 	 -31.7858 	 15.3393 	 9.03477 	 
H 	 -32.2539 	 15.4385 	 8.02044 	 
H 	 -32.112 	 16.0909 	 9.77291 	 
C 	 -32.046 	 13.958 	 9.65605 	 
H 	 -31.8379 	 13.2017 	 8.86954 	 
H 	 -31.3592 	 13.7234 	 10.4687 	 
C 	 -33.487 	 13.6878 	 10.1327 	 
H 	 -33.5938 	 14.0524 	 11.1276 	 
H 	 -34.2517 	 14.231 	 9.56167 	 
H 	 -33.7383 	 12.6751 	 10.2105 	 
S 	 -25.5883 	 15.9575 	 10.2456 	 
C 	 -24.7186 	 17.2894 	 10.9645 	 
C 	 -25.4453 	 18.4456 	 10.8261 	 
C 	 -26.7103 	 18.2679 	 10.1366 	 
C 	 -27.0074 	 16.936 	 9.91595 	 
H 	 -25.1016 	 19.4311 	 11.1214 	 
C 	 -27.6856 	 19.4263 	 10.0895 	 
H 	 -28.5453 	 19.0781 	 9.46579 	 
H 	 -27.4238 	 20.3457 	 9.54488 	 
C 	 -28.18 	 19.8354 	 11.5174 	 
H 	 -27.2854 	 20.0921 	 12.1736 	 
H 	 -28.6637 	 18.9327 	 11.9569 	 
C 	 -29.2792 	 20.8711 	 11.4556 	 
H 	 -28.9784 	 21.7003 	 10.862 	 
H 	 -29.7133 	 21.1669 	 12.3951 	 
H 	 -30.1245 	 20.5143 	 10.9783 	 
H 	 -30.5061 	 15.8138 	 6.66499 	 
H 	 -23.8439 	 17.3111 	 11.6105 	 
