34

S 	 -36.4919 	 -2.72523 	 11.5732 	 
C 	 -36.2335 	 -2.65045 	 13.277 	 
C 	 -36.6549 	 -3.90303 	 13.8395 	 
C 	 -37.3873 	 -4.71554 	 12.8891 	 
C 	 -37.4421 	 -4.18879 	 11.6008 	 
H 	 -37.8197 	 -5.69423 	 13.1672 	 
C 	 -36.6366 	 -4.17042 	 15.3099 	 
H 	 -37.6665 	 -4.25269 	 15.6897 	 
H 	 -36.2489 	 -3.29703 	 15.7987 	 
C 	 -35.7731 	 -5.35293 	 15.7377 	 
H 	 -35.5614 	 -5.14454 	 16.8043 	 
H 	 -36.3488 	 -6.30116 	 15.5428 	 
C 	 -34.3533 	 -5.24128 	 15.2046 	 
H 	 -33.8015 	 -6.14478 	 15.4654 	 
H 	 -34.4449 	 -5.21571 	 14.0815 	 
H 	 -33.788 	 -4.39468 	 15.5706 	 
S 	 -37.0628 	 -4.47143 	 8.91492 	 
C 	 -38.0838 	 -5.54918 	 7.97014 	 
C 	 -38.9883 	 -6.2179 	 8.78006 	 
C 	 -38.9326 	 -5.77516 	 10.158 	 
C 	 -37.8325 	 -4.90584 	 10.3904 	 
H 	 -39.6905 	 -6.91717 	 8.31332 	 
C 	 -39.9806 	 -6.3032 	 11.117 	 
H 	 -41.0236 	 -6.02312 	 10.7612 	 
H 	 -39.8241 	 -5.70993 	 12.0475 	 
C 	 -40.0176 	 -7.90039 	 11.304 	 
H 	 -39.1715 	 -8.43118 	 11.6626 	 
H 	 -40.0215 	 -8.43442 	 10.3961 	 
C 	 -41.2591 	 -8.31097 	 12.1315 	 
H 	 -42.1509 	 -7.91367 	 11.6651 	 
H 	 -41.1653 	 -7.86817 	 13.1468 	 
H 	 -41.2695 	 -9.40565 	 12.3598 	 
H 	 -35.5377 	 -2.0425 	 13.8146 	 
H 	 -37.974 	 -5.73099 	 6.93461 	 
