34

S 	 24.9697 	 -6.50905 	 -110.209 	 
C 	 25.1657 	 -7.46076 	 -111.641 	 
C 	 24.2538 	 -7.15874 	 -112.683 	 
C 	 23.4186 	 -6.08554 	 -112.271 	 
C 	 23.7799 	 -5.53695 	 -111.006 	 
H 	 22.6113 	 -5.58904 	 -112.85 	 
C 	 24.0812 	 -7.96998 	 -113.948 	 
H 	 23.0617 	 -8.42485 	 -113.99 	 
H 	 24.7695 	 -8.83207 	 -113.921 	 
C 	 24.2013 	 -7.16441 	 -115.271 	 
H 	 23.6745 	 -6.1677 	 -115.304 	 
H 	 25.3014 	 -6.98431 	 -115.452 	 
C 	 23.8154 	 -8.05174 	 -116.398 	 
H 	 22.7596 	 -8.07885 	 -116.474 	 
H 	 24.1296 	 -7.79842 	 -117.349 	 
H 	 24.3118 	 -9.05549 	 -116.257 	 
S 	 24.4984 	 -2.96485 	 -110.363 	 
C 	 23.3275 	 -1.91016 	 -109.733 	 
C 	 22.1694 	 -2.54472 	 -109.315 	 
C 	 22.1547 	 -3.90896 	 -109.804 	 
C 	 23.3667 	 -4.28828 	 -110.379 	 
H 	 21.3311 	 -2.06549 	 -108.838 	 
C 	 20.9536 	 -4.86566 	 -109.649 	 
H 	 20.685 	 -5.36968 	 -110.628 	 
H 	 20.1671 	 -4.18823 	 -109.307 	 
C 	 21.0738 	 -5.87785 	 -108.521 	 
H 	 20.7903 	 -5.38283 	 -107.54 	 
H 	 22.066 	 -6.05635 	 -108.405 	 
C 	 20.4363 	 -7.25406 	 -108.712 	 
H 	 21.11 	 -8.00397 	 -108.267 	 
H 	 20.3512 	 -7.50089 	 -109.788 	 
H 	 19.3632 	 -7.37962 	 -108.41 	 
H 	 25.6871 	 -8.39882 	 -111.788 	 
H 	 23.4601 	 -0.863028 	 -109.576 	 
