34

S 	 -100.891 	 13.9459 	 -119.971 	 
C 	 -100.218 	 15.4662 	 -120.388 	 
C 	 -99.4998 	 15.3736 	 -121.563 	 
C 	 -99.5643 	 14.1094 	 -122.191 	 
C 	 -100.243 	 13.2021 	 -121.408 	 
H 	 -99.0748 	 13.8083 	 -123.12 	 
C 	 -98.5399 	 16.4393 	 -121.963 	 
H 	 -97.5506 	 16.0834 	 -121.77 	 
H 	 -98.6487 	 17.2621 	 -121.258 	 
C 	 -98.6024 	 16.9051 	 -123.458 	 
H 	 -98.2401 	 16.0803 	 -124.09 	 
H 	 -99.6053 	 17.0623 	 -123.57 	 
C 	 -97.662 	 18.115 	 -123.841 	 
H 	 -98.3222 	 18.9132 	 -124.109 	 
H 	 -96.9818 	 18.6269 	 -123.097 	 
H 	 -97.0982 	 17.9217 	 -124.731 	 
S 	 -101.193 	 11.5182 	 -123.273 	 
C 	 -101.246 	 9.82471 	 -123.018 	 
C 	 -100.668 	 9.47094 	 -121.829 	 
C 	 -100.255 	 10.6088 	 -121.009 	 
C 	 -100.473 	 11.7794 	 -121.719 	 
H 	 -100.583 	 8.41233 	 -121.689 	 
C 	 -99.6042 	 10.4295 	 -119.619 	 
H 	 -99.3565 	 11.4235 	 -119.199 	 
H 	 -98.6981 	 9.91393 	 -119.909 	 
C 	 -100.537 	 9.67064 	 -118.643 	 
H 	 -100.793 	 8.67347 	 -119.004 	 
H 	 -101.506 	 10.2411 	 -118.598 	 
C 	 -100.067 	 9.64113 	 -117.21 	 
H 	 -100.567 	 8.95357 	 -116.615 	 
H 	 -100.353 	 10.6285 	 -116.805 	 
H 	 -99.0495 	 9.41848 	 -117.02 	 
H 	 -100.213 	 16.3446 	 -119.732 	 
H 	 -101.494 	 9.0938 	 -123.855 	 
