34

S 	 -28.9759 	 -36.3024 	 -93.7992 	 
C 	 -28.674 	 -35.0262 	 -94.8694 	 
C 	 -29.8294 	 -34.4522 	 -95.3955 	 
C 	 -30.9967 	 -35.0407 	 -94.861 	 
C 	 -30.697 	 -36.1105 	 -93.9894 	 
H 	 -31.9826 	 -34.6986 	 -94.9409 	 
C 	 -29.9968 	 -33.2343 	 -96.304 	 
H 	 -30.9896 	 -33.3284 	 -96.9 	 
H 	 -29.308 	 -33.2185 	 -97.0951 	 
C 	 -29.9691 	 -31.9259 	 -95.5979 	 
H 	 -30.0617 	 -31.131 	 -96.3902 	 
H 	 -30.8419 	 -32.0004 	 -94.9889 	 
C 	 -28.7151 	 -31.8239 	 -94.73 	 
H 	 -27.8151 	 -31.7594 	 -95.3824 	 
H 	 -28.6151 	 -30.7723 	 -94.345 	 
H 	 -28.6214 	 -32.5619 	 -93.8976 	 
S 	 -30.9718 	 -38.4328 	 -92.4346 	 
C 	 -32.4771 	 -39.2874 	 -92.4268 	 
C 	 -33.4025 	 -38.7187 	 -93.2392 	 
C 	 -32.9292 	 -37.5089 	 -93.9052 	 
C 	 -31.5691 	 -37.1363 	 -93.5609 	 
H 	 -34.3924 	 -39.1776 	 -93.3518 	 
C 	 -33.7838 	 -36.9192 	 -95.0037 	 
H 	 -33.7758 	 -35.8701 	 -94.7918 	 
H 	 -34.8287 	 -37.2738 	 -94.9222 	 
C 	 -33.318 	 -37.2378 	 -96.3935 	 
H 	 -32.2635 	 -37.0389 	 -96.484 	 
H 	 -33.8741 	 -36.5682 	 -97.0876 	 
C 	 -33.5272 	 -38.7186 	 -96.7438 	 
H 	 -33.2368 	 -38.8593 	 -97.8098 	 
H 	 -34.5705 	 -38.9158 	 -96.6936 	 
H 	 -32.8631 	 -39.4012 	 -96.1513 	 
H 	 -27.6521 	 -34.6591 	 -95.0634 	 
H 	 -32.7072 	 -40.134 	 -91.8147 	 
