34

S 	 -100.942 	 -0.976471 	 -108.254 	 
C 	 -101.228 	 -2.31248 	 -109.373 	 
C 	 -101.925 	 -3.33761 	 -108.737 	 
C 	 -102.143 	 -3.08684 	 -107.367 	 
C 	 -101.667 	 -1.84415 	 -106.933 	 
H 	 -102.643 	 -3.74358 	 -106.71 	 
C 	 -102.394 	 -4.65584 	 -109.317 	 
H 	 -102.425 	 -4.477 	 -110.342 	 
H 	 -103.361 	 -4.94328 	 -109.07 	 
C 	 -101.462 	 -5.83732 	 -109.164 	 
H 	 -101.408 	 -6.17262 	 -108.165 	 
H 	 -101.971 	 -6.56804 	 -109.74 	 
C 	 -100.192 	 -5.6552 	 -109.982 	 
H 	 -99.5985 	 -6.49892 	 -110.026 	 
H 	 -100.481 	 -5.52014 	 -111.046 	 
H 	 -99.5466 	 -4.83871 	 -109.644 	 
S 	 -102.41 	 0.381427 	 -105.529 	 
C 	 -102.545 	 0.327652 	 -103.803 	 
C 	 -102.363 	 -0.959281 	 -103.344 	 
C 	 -101.986 	 -1.83362 	 -104.419 	 
C 	 -101.859 	 -1.21255 	 -105.62 	 
H 	 -102.489 	 -1.15812 	 -102.286 	 
C 	 -101.484 	 -3.21123 	 -104.192 	 
H 	 -100.743 	 -3.03996 	 -103.395 	 
H 	 -100.73 	 -3.46536 	 -105.009 	 
C 	 -102.518 	 -4.31097 	 -103.957 	 
H 	 -103.199 	 -4.30639 	 -104.807 	 
H 	 -103.189 	 -4.03096 	 -103.25 	 
C 	 -101.933 	 -5.69286 	 -103.762 	 
H 	 -101.854 	 -5.77617 	 -102.77 	 
H 	 -100.935 	 -5.74004 	 -104.182 	 
H 	 -102.44 	 -6.56477 	 -104.143 	 
H 	 -100.921 	 -2.34853 	 -110.448 	 
H 	 -102.874 	 1.1916 	 -103.222 	 
