34

S 	 -53.0769 	 -49.5956 	 -80.3879 	 
C 	 -53.7805 	 -48.0614 	 -80.7133 	 
C 	 -53.3927 	 -47.1299 	 -79.7452 	 
C 	 -52.7075 	 -47.8191 	 -78.6692 	 
C 	 -52.4458 	 -49.1544 	 -78.8896 	 
H 	 -52.3292 	 -47.3416 	 -77.8409 	 
C 	 -53.7893 	 -45.6666 	 -79.7989 	 
H 	 -53.6687 	 -45.2558 	 -78.7882 	 
H 	 -54.8569 	 -45.6262 	 -80.0082 	 
C 	 -53.029 	 -44.8396 	 -80.889 	 
H 	 -53.2002 	 -45.3478 	 -81.8565 	 
H 	 -53.4808 	 -43.8405 	 -80.9841 	 
C 	 -51.5091 	 -44.7857 	 -80.7551 	 
H 	 -51.0417 	 -44.12 	 -81.4807 	 
H 	 -51.1575 	 -44.3935 	 -79.7686 	 
H 	 -51.1097 	 -45.7267 	 -80.9324 	 
S 	 -50.8905 	 -51.3966 	 -78.906 	 
C 	 -50.7848 	 -52.4204 	 -77.5347 	 
C 	 -51.3179 	 -51.7518 	 -76.4365 	 
C 	 -51.719 	 -50.3796 	 -76.7477 	 
C 	 -51.8168 	 -50.1738 	 -78.1097 	 
H 	 -51.3305 	 -52.2303 	 -75.4698 	 
C 	 -52.3505 	 -49.5014 	 -75.7375 	 
H 	 -53.3876 	 -49.8181 	 -75.56 	 
H 	 -52.4135 	 -48.4988 	 -76.1466 	 
C 	 -51.5326 	 -49.3626 	 -74.5229 	 
H 	 -50.5499 	 -49.0789 	 -74.8531 	 
H 	 -51.4727 	 -50.3208 	 -74.0446 	 
C 	 -51.9751 	 -48.2101 	 -73.629 	 
H 	 -51.1811 	 -48.1417 	 -72.9356 	 
H 	 -52.9156 	 -48.3289 	 -73.0653 	 
H 	 -51.9676 	 -47.267 	 -74.108 	 
H 	 -54.3476 	 -47.8225 	 -81.5825 	 
H 	 -50.4651 	 -53.4539 	 -77.6878 	 
