34

S 	 34.3985 	 -28.3464 	 -127.872 	 
C 	 35.5757 	 -28.433 	 -129.085 	 
C 	 35.9458 	 -29.7444 	 -129.4 	 
C 	 35.1577 	 -30.682 	 -128.696 	 
C 	 34.2611 	 -30.0985 	 -127.789 	 
H 	 35.0558 	 -31.6993 	 -128.778 	 
C 	 36.9654 	 -30.0809 	 -130.538 	 
H 	 37.1652 	 -29.1617 	 -131.132 	 
H 	 36.3547 	 -30.7493 	 -131.158 	 
C 	 38.3656 	 -30.5724 	 -130.07 	 
H 	 38.1905 	 -31.3781 	 -129.369 	 
H 	 39.0948 	 -30.9119 	 -130.837 	 
C 	 39.0381 	 -29.4514 	 -129.125 	 
H 	 38.3834 	 -29.2297 	 -128.24 	 
H 	 40.0295 	 -29.7651 	 -128.705 	 
H 	 39.3039 	 -28.5951 	 -129.734 	 
S 	 31.7889 	 -29.8033 	 -126.288 	 
C 	 31.1473 	 -31.1677 	 -125.468 	 
C 	 31.8193 	 -32.3149 	 -125.73 	 
C 	 33.0274 	 -32.1034 	 -126.494 	 
C 	 33.2368 	 -30.8129 	 -126.891 	 
H 	 31.4717 	 -33.2988 	 -125.355 	 
C 	 33.8966 	 -33.3056 	 -126.84 	 
H 	 33.9216 	 -33.9225 	 -126.007 	 
H 	 34.953 	 -32.9158 	 -126.818 	 
C 	 33.7172 	 -34.0694 	 -128.186 	 
H 	 34.5993 	 -34.6513 	 -128.434 	 
H 	 33.6141 	 -33.2582 	 -128.944 	 
C 	 32.4485 	 -34.9739 	 -128.228 	 
H 	 32.3297 	 -35.6195 	 -127.38 	 
H 	 32.4462 	 -35.6603 	 -129.013 	 
H 	 31.4816 	 -34.4283 	 -128.266 	 
H 	 36.1374 	 -27.6467 	 -129.625 	 
H 	 30.1973 	 -31.0587 	 -124.874 	 
