34

S 	 -90.9311 	 -31.1211 	 -75.0715 	 
C 	 -89.202 	 -31.331 	 -74.7885 	 
C 	 -88.4362 	 -30.5745 	 -75.5998 	 
C 	 -89.285 	 -29.5993 	 -76.2856 	 
C 	 -90.6519 	 -29.8206 	 -76.2299 	 
H 	 -88.8204 	 -28.8229 	 -76.9017 	 
C 	 -86.9567 	 -30.75 	 -75.8842 	 
H 	 -86.3446 	 -30.7339 	 -74.9473 	 
H 	 -86.6799 	 -29.8935 	 -76.4835 	 
C 	 -86.6493 	 -32.114 	 -76.5985 	 
H 	 -85.5731 	 -32.3386 	 -76.6331 	 
H 	 -87.0816 	 -32.9099 	 -76.0101 	 
C 	 -87.1348 	 -32.1951 	 -78.0685 	 
H 	 -86.8098 	 -31.2847 	 -78.6397 	 
H 	 -86.7371 	 -33.109 	 -78.5705 	 
H 	 -88.1837 	 -32.3433 	 -78.1725 	 
S 	 -93.0775 	 -28.4687 	 -75.9248 	 
C 	 -93.5022 	 -27.1385 	 -76.9541 	 
C 	 -92.6845 	 -27.1118 	 -78.0614 	 
C 	 -91.7458 	 -28.1788 	 -78.0795 	 
C 	 -91.68 	 -28.9315 	 -76.8658 	 
H 	 -92.7885 	 -26.4037 	 -78.8691 	 
C 	 -90.7147 	 -28.2847 	 -79.1735 	 
H 	 -89.7532 	 -28.2568 	 -78.6452 	 
H 	 -90.7442 	 -27.3393 	 -79.7717 	 
C 	 -90.7253 	 -29.4901 	 -80.1475 	 
H 	 -91.5904 	 -29.3323 	 -80.8286 	 
H 	 -91.0175 	 -30.2977 	 -79.5499 	 
C 	 -89.414 	 -29.5378 	 -80.9135 	 
H 	 -89.0684 	 -28.6352 	 -81.4408 	 
H 	 -89.2974 	 -30.4782 	 -81.4916 	 
H 	 -88.7075 	 -29.4878 	 -80.1484 	 
H 	 -88.7945 	 -32.194 	 -74.3067 	 
H 	 -94.3278 	 -26.421 	 -76.8023 	 
