34

S 	 -56.1124 	 10.4893 	 -100.008 	 
C 	 -54.4127 	 10.3356 	 -99.4897 	 
C 	 -53.8585 	 11.577 	 -99.2586 	 
C 	 -54.7605 	 12.6344 	 -99.5039 	 
C 	 -55.9607 	 12.2609 	 -100.12 	 
H 	 -54.6176 	 13.6648 	 -99.3349 	 
C 	 -52.4208 	 11.9591 	 -98.91 	 
H 	 -52.414 	 12.8767 	 -98.2778 	 
H 	 -51.8338 	 12.0626 	 -99.8859 	 
C 	 -51.7161 	 10.9127 	 -98.0023 	 
H 	 -51.8806 	 9.87353 	 -98.3275 	 
H 	 -50.646 	 11.1351 	 -98.1259 	 
C 	 -52.0716 	 10.9923 	 -96.518 	 
H 	 -51.5597 	 11.8396 	 -96.0349 	 
H 	 -53.1396 	 11.1095 	 -96.3847 	 
H 	 -51.6547 	 10.1985 	 -95.9249 	 
S 	 -58.6729 	 12.306 	 -100.113 	 
C 	 -59.6108 	 13.7523 	 -100.512 	 
C 	 -58.7736 	 14.7088 	 -100.997 	 
C 	 -57.4203 	 14.3629 	 -100.907 	 
C 	 -57.1732 	 13.0145 	 -100.493 	 
H 	 -59.2127 	 15.6255 	 -101.393 	 
C 	 -56.4303 	 15.4993 	 -101.033 	 
H 	 -55.3948 	 15.2287 	 -100.672 	 
H 	 -56.5782 	 16.261 	 -100.255 	 
C 	 -56.1934 	 16.0609 	 -102.459 	 
H 	 -56.0339 	 15.288 	 -103.183 	 
H 	 -55.3245 	 16.7427 	 -102.382 	 
C 	 -57.3573 	 17.0614 	 -103.051 	 
H 	 -58.2012 	 16.3733 	 -103.358 	 
H 	 -57.0992 	 17.5458 	 -103.978 	 
H 	 -57.6344 	 17.8078 	 -102.319 	 
H 	 -54.0443 	 9.34928 	 -99.2947 	 
H 	 -60.7129 	 13.7668 	 -100.619 	 
