34

S 	 -119.007 	 47.1804 	 -33.4541 	 
C 	 -118.721 	 45.5007 	 -33.1543 	 
C 	 -119.569 	 45.0699 	 -32.171 	 
C 	 -120.322 	 46.1149 	 -31.4976 	 
C 	 -120.01 	 47.3425 	 -32.0502 	 
H 	 -120.965 	 45.9244 	 -30.6859 	 
C 	 -119.727 	 43.667 	 -31.563 	 
H 	 -119.519 	 42.9115 	 -32.2888 	 
H 	 -120.689 	 43.5232 	 -31.2335 	 
C 	 -118.774 	 43.4704 	 -30.3741 	 
H 	 -119.014 	 44.304 	 -29.6331 	 
H 	 -118.988 	 42.5063 	 -29.9529 	 
C 	 -117.297 	 43.5179 	 -30.9027 	 
H 	 -116.669 	 42.9553 	 -30.1757 	 
H 	 -117.13 	 43.0657 	 -31.815 	 
H 	 -116.888 	 44.5168 	 -31.0242 	 
S 	 -121.679 	 49.2935 	 -33.0889 	 
C 	 -121.895 	 50.8192 	 -32.3271 	 
C 	 -121.372 	 50.7558 	 -31.0555 	 
C 	 -120.587 	 49.5484 	 -30.8162 	 
C 	 -120.683 	 48.6321 	 -31.8117 	 
H 	 -121.417 	 51.5253 	 -30.3219 	 
C 	 -119.877 	 49.3293 	 -29.5167 	 
H 	 -119.704 	 50.2437 	 -28.9436 	 
H 	 -118.839 	 48.9941 	 -29.6918 	 
C 	 -120.424 	 48.2793 	 -28.5759 	 
H 	 -119.589 	 48.0655 	 -27.8354 	 
H 	 -120.622 	 47.3722 	 -29.2172 	 
C 	 -121.75 	 48.6874 	 -27.854 	 
H 	 -122.612 	 48.6306 	 -28.5218 	 
H 	 -121.679 	 49.6564 	 -27.2646 	 
H 	 -122.013 	 47.9537 	 -27.1511 	 
H 	 -118.052 	 44.8021 	 -33.667 	 
H 	 -122.497 	 51.607 	 -32.7987 	 
