34

S 	 -62.985 	 8.72836 	 -104.643 	 
C 	 -63.6454 	 9.72177 	 -105.941 	 
C 	 -62.9553 	 10.9351 	 -106.009 	 
C 	 -61.8568 	 10.9912 	 -105.082 	 
C 	 -61.6356 	 9.79916 	 -104.361 	 
H 	 -61.1974 	 11.8577 	 -104.846 	 
C 	 -63.3723 	 12.0714 	 -106.941 	 
H 	 -62.8183 	 12.9729 	 -106.77 	 
H 	 -64.4412 	 12.1166 	 -106.611 	 
C 	 -63.3902 	 11.8183 	 -108.386 	 
H 	 -62.4923 	 11.2458 	 -108.703 	 
H 	 -64.319 	 11.2757 	 -108.507 	 
C 	 -63.5174 	 13.0724 	 -109.251 	 
H 	 -63.4774 	 12.9784 	 -110.316 	 
H 	 -64.4884 	 13.4823 	 -109.125 	 
H 	 -62.8071 	 13.842 	 -108.995 	 
S 	 -61.6794 	 9.2783 	 -101.689 	 
C 	 -60.4032 	 9.93101 	 -100.724 	 
C 	 -59.2598 	 10.2198 	 -101.471 	 
C 	 -59.5157 	 10.0752 	 -102.87 	 
C 	 -60.7837 	 9.72465 	 -103.147 	 
H 	 -58.3634 	 10.4722 	 -101.055 	 
C 	 -58.3523 	 10.4911 	 -103.772 	 
H 	 -58.3931 	 9.8981 	 -104.72 	 
H 	 -57.4298 	 10.1426 	 -103.248 	 
C 	 -58.1515 	 11.9794 	 -104.069 	 
H 	 -57.981 	 12.5613 	 -103.185 	 
H 	 -59.0839 	 12.4115 	 -104.529 	 
C 	 -56.8266 	 12.1999 	 -104.905 	 
H 	 -55.9444 	 11.7321 	 -104.305 	 
H 	 -56.6543 	 13.2347 	 -105.119 	 
H 	 -57.0179 	 11.5778 	 -105.854 	 
H 	 -64.5741 	 9.46234 	 -106.543 	 
H 	 -60.433 	 9.94536 	 -99.6706 	 
