34

S 	 -38.5836 	 -7.50019 	 8.40256 	 
C 	 -39.8962 	 -8.56978 	 8.69708 	 
C 	 -40.0314 	 -9.43282 	 7.60512 	 
C 	 -38.9964 	 -9.3173 	 6.59706 	 
C 	 -37.9945 	 -8.43435 	 7.00895 	 
H 	 -38.9015 	 -9.97765 	 5.706 	 
C 	 -41.082 	 -10.5264 	 7.47444 	 
H 	 -41.1692 	 -11.1387 	 8.39273 	 
H 	 -40.8019 	 -11.2386 	 6.6661 	 
C 	 -42.4837 	 -9.95421 	 7.24644 	 
H 	 -42.8206 	 -9.4637 	 8.16015 	 
H 	 -42.4162 	 -9.23044 	 6.46467 	 
C 	 -43.6266 	 -10.9678 	 6.98909 	 
H 	 -43.2934 	 -11.7301 	 6.21617 	 
H 	 -43.9786 	 -11.4963 	 7.94651 	 
H 	 -44.5387 	 -10.4615 	 6.58542 	 
S 	 -35.5726 	 -7.41107 	 7.47524 	 
C 	 -34.3684 	 -7.45123 	 6.20451 	 
C 	 -34.7944 	 -8.06087 	 5.04422 	 
C 	 -36.1726 	 -8.45483 	 5.13001 	 
C 	 -36.7502 	 -8.12447 	 6.3622 	 
H 	 -34.1446 	 -8.11963 	 4.18822 	 
C 	 -36.9133 	 -9.19766 	 3.99973 	 
H 	 -37.256 	 -10.1247 	 4.53519 	 
H 	 -36.0216 	 -9.5326 	 3.36817 	 
C 	 -38.0126 	 -8.44092 	 3.23719 	 
H 	 -37.7234 	 -7.35346 	 3.12181 	 
H 	 -38.9156 	 -8.48297 	 3.89342 	 
C 	 -38.3533 	 -8.91771 	 1.82613 	 
H 	 -38.9774 	 -8.25209 	 1.27071 	 
H 	 -38.7973 	 -9.88764 	 1.76081 	 
H 	 -37.4132 	 -9.01934 	 1.36519 	 
H 	 -40.476 	 -8.47958 	 9.68933 	 
H 	 -33.3747 	 -7.12386 	 6.25496 	 
