34

S 	 -138.716 	 14.149 	 0.407811 	 
C 	 -140.019 	 13.246 	 -0.327385 	 
C 	 -139.494 	 12.2816 	 -1.19258 	 
C 	 -138.076 	 12.2142 	 -1.221 	 
C 	 -137.505 	 13.0873 	 -0.248319 	 
H 	 -137.45 	 11.5088 	 -1.73138 	 
C 	 -140.25 	 11.2489 	 -1.98579 	 
H 	 -139.741 	 11.0747 	 -2.94307 	 
H 	 -141.278 	 11.593 	 -2.17474 	 
C 	 -140.284 	 9.83863 	 -1.44885 	 
H 	 -139.287 	 9.42747 	 -1.55322 	 
H 	 -140.531 	 9.88473 	 -0.370347 	 
C 	 -141.461 	 8.95138 	 -2.03778 	 
H 	 -141.457 	 7.99331 	 -1.64628 	 
H 	 -142.399 	 9.36046 	 -1.83913 	 
H 	 -141.471 	 8.80102 	 -3.14421 	 
S 	 -135.357 	 14.8801 	 -0.615148 	 
C 	 -133.893 	 14.4291 	 0.158721 	 
C 	 -133.849 	 13.1318 	 0.583019 	 
C 	 -135.091 	 12.4787 	 0.443267 	 
C 	 -136.098 	 13.3545 	 -0.0618864 	 
H 	 -132.967 	 12.7064 	 0.891566 	 
C 	 -135.33 	 11.0708 	 0.921287 	 
H 	 -136.351 	 10.9039 	 1.3809 	 
H 	 -134.69 	 11.0254 	 1.80311 	 
C 	 -134.993 	 9.98507 	 -0.0333395 	 
H 	 -134.042 	 10.1967 	 -0.404798 	 
H 	 -135.722 	 10.0781 	 -0.802745 	 
C 	 -135.078 	 8.55244 	 0.64497 	 
H 	 -134.385 	 8.49667 	 1.45909 	 
H 	 -134.779 	 7.7687 	 0.0551844 	 
H 	 -136.05 	 8.3745 	 1.06805 	 
H 	 -141.036 	 13.2958 	 -0.0123554 	 
H 	 -133.057 	 15.0993 	 -0.0490239 	 
