34

S 	 23.0198 	 -6.00459 	 -115.672 	 
C 	 23.7368 	 -7.45303 	 -115 	 
C 	 24.4801 	 -7.28524 	 -113.86 	 
C 	 24.1843 	 -5.96635 	 -113.302 	 
C 	 23.3567 	 -5.17342 	 -114.13 	 
H 	 24.6144 	 -5.60404 	 -112.377 	 
C 	 25.2385 	 -8.41612 	 -113.127 	 
H 	 24.5058 	 -8.89461 	 -112.448 	 
H 	 25.905 	 -7.96575 	 -112.452 	 
C 	 25.9122 	 -9.5794 	 -113.932 	 
H 	 25.244 	 -10.1019 	 -114.538 	 
H 	 26.6891 	 -9.0767 	 -114.592 	 
C 	 26.5069 	 -10.7123 	 -113.038 	 
H 	 25.7239 	 -11.1665 	 -112.378 	 
H 	 26.8898 	 -11.5065 	 -113.601 	 
H 	 27.3663 	 -10.3642 	 -112.426 	 
S 	 23.7018 	 -2.52431 	 -114.735 	 
C 	 22.4791 	 -1.40383 	 -114.257 	 
C 	 21.4493 	 -1.95949 	 -113.464 	 
C 	 21.7058 	 -3.36261 	 -113.109 	 
C 	 22.8238 	 -3.80686 	 -113.918 	 
H 	 20.6358 	 -1.40775 	 -112.959 	 
C 	 20.8386 	 -4.1716 	 -112.145 	 
H 	 21.4522 	 -4.56336 	 -111.367 	 
H 	 20.529 	 -5.11625 	 -112.624 	 
C 	 19.634 	 -3.40627 	 -111.449 	 
H 	 18.9735 	 -3.16721 	 -112.301 	 
H 	 20.0918 	 -2.53363 	 -110.95 	 
C 	 18.7905 	 -4.33927 	 -110.502 	 
H 	 19.4358 	 -5.16742 	 -110.168 	 
H 	 17.9358 	 -4.79769 	 -111.065 	 
H 	 18.4466 	 -3.72846 	 -109.658 	 
H 	 23.7598 	 -8.42528 	 -115.526 	 
H 	 22.4996 	 -0.363274 	 -114.536 	 
