34

S 	 40.6517 	 -12.3114 	 -123.004 	 
C 	 42.0981 	 -11.9491 	 -121.998 	 
C 	 43.1334 	 -12.8634 	 -122.21 	 
C 	 42.7793 	 -13.7735 	 -123.269 	 
C 	 41.4854 	 -13.6552 	 -123.69 	 
H 	 43.3253 	 -14.5044 	 -123.791 	 
C 	 44.477 	 -13.036 	 -121.458 	 
H 	 45.2395 	 -13.3111 	 -122.196 	 
H 	 44.5369 	 -13.952 	 -120.872 	 
C 	 44.9889 	 -11.8071 	 -120.75 	 
H 	 44.2519 	 -11.5292 	 -119.996 	 
H 	 45.886 	 -12.1141 	 -120.205 	 
C 	 45.341 	 -10.6967 	 -121.645 	 
H 	 45.9909 	 -11.1503 	 -122.458 	 
H 	 44.4191 	 -10.3442 	 -122.088 	 
H 	 45.8376 	 -9.89825 	 -121.122 	 
S 	 39.5535 	 -15.341 	 -124.377 	 
C 	 39.3202 	 -15.9251 	 -126.021 	 
C 	 40.3327 	 -15.3783 	 -126.798 	 
C 	 41.2575 	 -14.5401 	 -126.115 	 
C 	 40.9437 	 -14.4243 	 -124.774 	 
H 	 40.3476 	 -15.6152 	 -127.842 	 
C 	 42.3662 	 -13.7619 	 -126.879 	 
H 	 42.5706 	 -12.9739 	 -126.2 	 
H 	 41.8851 	 -13.1552 	 -127.666 	 
C 	 43.511 	 -14.6523 	 -127.446 	 
H 	 42.9946 	 -14.9823 	 -128.329 	 
H 	 43.7061 	 -15.5414 	 -126.83 	 
C 	 44.7868 	 -13.8442 	 -127.651 	 
H 	 45.1245 	 -13.3735 	 -126.764 	 
H 	 44.7408 	 -13.1133 	 -128.414 	 
H 	 45.585 	 -14.539 	 -127.976 	 
H 	 42.2482 	 -11.1894 	 -121.261 	 
H 	 38.4866 	 -16.4665 	 -126.495 	 
