34

S 	 -105.789 	 24.5685 	 -117.593 	 
C 	 -106.637 	 23.0356 	 -117.161 	 
C 	 -105.761 	 21.9777 	 -117.25 	 
C 	 -104.447 	 22.4454 	 -117.509 	 
C 	 -104.238 	 23.8098 	 -117.602 	 
H 	 -103.613 	 21.7806 	 -117.627 	 
C 	 -106.114 	 20.5422 	 -117.197 	 
H 	 -106.202 	 20.1247 	 -118.172 	 
H 	 -107.034 	 20.3228 	 -116.569 	 
C 	 -105.104 	 19.7033 	 -116.433 	 
H 	 -104.133 	 19.8732 	 -116.798 	 
H 	 -104.913 	 20.0569 	 -115.435 	 
C 	 -105.375 	 18.1943 	 -116.508 	 
H 	 -104.496 	 17.7196 	 -116.074 	 
H 	 -106.344 	 17.929 	 -116.031 	 
H 	 -105.378 	 17.7891 	 -117.511 	 
S 	 -102.939 	 25.5941 	 -119.204 	 
C 	 -101.29 	 25.9943 	 -118.828 	 
C 	 -100.756 	 25.3673 	 -117.773 	 
C 	 -101.702 	 24.535 	 -117.06 	 
C 	 -102.986 	 24.5539 	 -117.758 	 
H 	 -99.7572 	 25.5644 	 -117.439 	 
C 	 -101.182 	 23.717 	 -115.89 	 
H 	 -101.88 	 22.8736 	 -115.846 	 
H 	 -101.27 	 24.4357 	 -115.045 	 
C 	 -99.7705 	 23.1181 	 -116.005 	 
H 	 -98.9011 	 23.8764 	 -115.93 	 
H 	 -99.5733 	 22.6176 	 -116.911 	 
C 	 -99.591 	 21.9571 	 -114.93 	 
H 	 -98.6184 	 21.5621 	 -114.979 	 
H 	 -100.364 	 21.1683 	 -115.116 	 
H 	 -99.7243 	 22.388 	 -113.949 	 
H 	 -107.705 	 22.9148 	 -117.024 	 
H 	 -100.789 	 26.6888 	 -119.544 	 
