34

S 	 -107.338 	 14.1013 	 -121.625 	 
C 	 -107.76 	 12.9506 	 -120.499 	 
C 	 -107.213 	 11.7018 	 -120.797 	 
C 	 -106.156 	 11.7333 	 -121.755 	 
C 	 -106.191 	 12.9629 	 -122.36 	 
H 	 -105.54 	 10.9177 	 -122.216 	 
C 	 -107.445 	 10.4951 	 -119.86 	 
H 	 -106.873 	 9.6361 	 -120.161 	 
H 	 -108.566 	 10.2406 	 -119.962 	 
C 	 -107.208 	 10.7095 	 -118.376 	 
H 	 -107.891 	 11.3506 	 -117.878 	 
H 	 -107.481 	 9.76592 	 -117.854 	 
C 	 -105.761 	 11.1305 	 -118.109 	 
H 	 -104.992 	 10.3437 	 -118.379 	 
H 	 -105.604 	 12.1045 	 -118.601 	 
H 	 -105.57 	 11.285 	 -117.071 	 
S 	 -103.729 	 13.4928 	 -123.426 	 
C 	 -103.558 	 14.1357 	 -125.014 	 
C 	 -104.769 	 14.2864 	 -125.641 	 
C 	 -105.873 	 13.853 	 -124.766 	 
C 	 -105.47 	 13.3964 	 -123.551 	 
H 	 -104.988 	 14.675 	 -126.643 	 
C 	 -107.323 	 13.8824 	 -125.291 	 
H 	 -107.888 	 13.058 	 -124.783 	 
H 	 -107.377 	 13.5597 	 -126.393 	 
C 	 -108.027 	 15.2355 	 -125.154 	 
H 	 -107.461 	 16.065 	 -125.551 	 
H 	 -108.113 	 15.6277 	 -124.131 	 
C 	 -109.459 	 15.3012 	 -125.731 	 
H 	 -109.959 	 16.2421 	 -125.406 	 
H 	 -110.144 	 14.5602 	 -125.329 	 
H 	 -109.39 	 15.3285 	 -126.804 	 
H 	 -108.469 	 13.1497 	 -119.673 	 
H 	 -102.687 	 14.6571 	 -125.412 	 
