34

S 	 -44.9534 	 27.4947 	 29.5753 	 
C 	 -45.8269 	 28.8418 	 30.3341 	 
C 	 -46.7021 	 28.3924 	 31.3856 	 
C 	 -46.7605 	 26.9642 	 31.3724 	 
C 	 -45.8967 	 26.3212 	 30.5225 	 
H 	 -47.525 	 26.5006 	 31.9914 	 
C 	 -47.5884 	 29.2269 	 32.2577 	 
H 	 -48.6319 	 29.2043 	 31.9546 	 
H 	 -47.3551 	 30.2073 	 32.0626 	 
C 	 -47.5288 	 28.8195 	 33.713 	 
H 	 -48.3882 	 29.2604 	 34.1978 	 
H 	 -47.59 	 27.7236 	 33.7485 	 
C 	 -46.2644 	 29.1437 	 34.5063 	 
H 	 -45.9778 	 30.1612 	 34.4847 	 
H 	 -46.4186 	 28.7527 	 35.5032 	 
H 	 -45.4565 	 28.6194 	 33.9741 	 
S 	 -44.6775 	 24.3505 	 29.0784 	 
C 	 -44.5842 	 22.7094 	 29.5497 	 
C 	 -45.1505 	 22.6063 	 30.825 	 
C 	 -45.7912 	 23.7945 	 31.3314 	 
C 	 -45.6108 	 24.8878 	 30.4559 	 
H 	 -45.1794 	 21.6484 	 31.3689 	 
C 	 -46.481 	 23.7964 	 32.6736 	 
H 	 -46.5018 	 24.8382 	 33.0183 	 
H 	 -45.8794 	 23.3526 	 33.4883 	 
C 	 -47.9228 	 23.2059 	 32.6531 	 
H 	 -47.842 	 22.1004 	 32.4645 	 
H 	 -48.6179 	 23.6351 	 31.9003 	 
C 	 -48.5789 	 23.5294 	 34.0269 	 
H 	 -48.2888 	 22.8759 	 34.9028 	 
H 	 -49.651 	 23.661 	 34.0253 	 
H 	 -48.1727 	 24.4905 	 34.329 	 
H 	 -45.5686 	 29.8834 	 30.1064 	 
H 	 -44.1203 	 21.9584 	 28.9867 	 
