34

S 	 -67.1818 	 9.15862 	 -73.0387 	 
C 	 -67.1288 	 9.11633 	 -71.298 	 
C 	 -68.3035 	 9.52189 	 -70.7521 	 
C 	 -69.316 	 9.80498 	 -71.7154 	 
C 	 -68.8231 	 9.80284 	 -73.0093 	 
H 	 -70.3221 	 10.0924 	 -71.5066 	 
C 	 -68.4637 	 9.84549 	 -69.2707 	 
H 	 -68.6181 	 10.9394 	 -69.2332 	 
H 	 -67.5921 	 9.80034 	 -68.6305 	 
C 	 -69.5529 	 9.0453 	 -68.4623 	 
H 	 -69.6797 	 9.4056 	 -67.4448 	 
H 	 -70.5329 	 9.13159 	 -68.8584 	 
C 	 -69.3317 	 7.50767 	 -68.2294 	 
H 	 -70.0197 	 7.39242 	 -67.3503 	 
H 	 -69.4297 	 6.69758 	 -68.9895 	 
H 	 -68.362 	 7.47866 	 -67.7556 	 
S 	 -69.222 	 11.8278 	 -74.801 	 
C 	 -70.5169 	 11.7079 	 -75.9739 	 
C 	 -71.1076 	 10.4384 	 -75.905 	 
C 	 -70.4719 	 9.54859 	 -75.0006 	 
C 	 -69.5393 	 10.2054 	 -74.2083 	 
H 	 -71.9733 	 10.2181 	 -76.5102 	 
C 	 -70.8303 	 8.04863 	 -74.9023 	 
H 	 -70.2932 	 7.69141 	 -73.9891 	 
H 	 -70.2478 	 7.44685 	 -75.6503 	 
C 	 -72.2644 	 7.71958 	 -74.5677 	 
H 	 -73.011 	 8.05659 	 -75.2802 	 
H 	 -72.5308 	 8.22198 	 -73.6399 	 
C 	 -72.4954 	 6.23376 	 -74.4222 	 
H 	 -73.5741 	 6.04048 	 -74.2103 	 
H 	 -72.0398 	 5.8027 	 -73.5529 	 
H 	 -72.2664 	 5.72252 	 -75.3276 	 
H 	 -66.3223 	 8.92331 	 -70.6748 	 
H 	 -71.0613 	 12.4715 	 -76.4718 	 
