34

S 	 -52.4589 	 -51.9646 	 -75.3356 	 
C 	 -52.062 	 -53.6303 	 -75.2291 	 
C 	 -52.6347 	 -54.4371 	 -76.2208 	 
C 	 -53.6394 	 -53.713 	 -76.9481 	 
C 	 -53.5647 	 -52.3091 	 -76.677 	 
H 	 -54.1995 	 -54.0445 	 -77.7434 	 
C 	 -52.3578 	 -55.9599 	 -76.407 	 
H 	 -51.3086 	 -56.1351 	 -76.3353 	 
H 	 -52.7523 	 -56.2326 	 -77.4172 	 
C 	 -53.0949 	 -56.871 	 -75.2786 	 
H 	 -52.6807 	 -57.8896 	 -75.2673 	 
H 	 -52.7889 	 -56.3577 	 -74.3098 	 
C 	 -54.6253 	 -57.0729 	 -75.4702 	 
H 	 -54.9626 	 -56.0448 	 -75.7789 	 
H 	 -54.8837 	 -57.7765 	 -76.263 	 
H 	 -55.2002 	 -57.2616 	 -74.5327 	 
S 	 -55.9695 	 -51.0556 	 -76.4637 	 
C 	 -56.484 	 -49.9857 	 -77.8185 	 
C 	 -55.6291 	 -49.9871 	 -78.8827 	 
C 	 -54.517 	 -50.8684 	 -78.6377 	 
C 	 -54.4711 	 -51.395 	 -77.2825 	 
H 	 -55.7325 	 -49.4098 	 -79.7611 	 
C 	 -53.5787 	 -51.3779 	 -79.7021 	 
H 	 -52.8362 	 -51.8818 	 -79.1636 	 
H 	 -53.2267 	 -50.4948 	 -80.233 	 
C 	 -54.1588 	 -52.1626 	 -80.8973 	 
H 	 -54.7726 	 -51.4264 	 -81.4471 	 
H 	 -54.7687 	 -52.9924 	 -80.5661 	 
C 	 -53.1675 	 -52.6823 	 -81.9881 	 
H 	 -52.4846 	 -53.3738 	 -81.5685 	 
H 	 -52.5999 	 -51.834 	 -82.2669 	 
H 	 -53.6195 	 -53.1695 	 -82.8842 	 
H 	 -51.4217 	 -54.0963 	 -74.5423 	 
H 	 -57.4647 	 -49.4938 	 -77.8516 	 
