34

S 	 -102.064 	 11.7399 	 -121.707 	 
C 	 -103.495 	 12.1969 	 -122.612 	 
C 	 -103.283 	 13.2786 	 -123.501 	 
C 	 -101.874 	 13.7251 	 -123.49 	 
C 	 -101.13 	 13.0019 	 -122.55 	 
H 	 -101.515 	 14.4715 	 -124.153 	 
C 	 -104.33 	 13.8564 	 -124.349 	 
H 	 -105.259 	 13.6994 	 -123.728 	 
H 	 -104.37 	 13.2404 	 -125.302 	 
C 	 -104.36 	 15.3463 	 -124.821 	 
H 	 -103.488 	 15.652 	 -125.469 	 
H 	 -105.16 	 15.4028 	 -125.562 	 
C 	 -104.589 	 16.2714 	 -123.693 	 
H 	 -104.693 	 17.2777 	 -123.97 	 
H 	 -105.51 	 16.0115 	 -123.159 	 
H 	 -103.754 	 16.1863 	 -122.945 	 
S 	 -98.7835 	 11.5729 	 -122.943 	 
C 	 -97.2325 	 12.2031 	 -122.523 	 
C 	 -97.3543 	 13.5184 	 -122.127 	 
C 	 -98.7372 	 13.9288 	 -121.986 	 
C 	 -99.6758 	 12.9594 	 -122.42 	 
H 	 -96.5465 	 14.1819 	 -121.92 	 
C 	 -99.0537 	 15.3632 	 -121.508 	 
H 	 -100.064 	 15.7774 	 -121.901 	 
H 	 -98.3862 	 16.0398 	 -122.035 	 
C 	 -98.8507 	 15.4809 	 -119.987 	 
H 	 -99.1333 	 16.4591 	 -119.54 	 
H 	 -97.8965 	 15.2421 	 -119.722 	 
C 	 -99.9334 	 14.6345 	 -119.261 	 
H 	 -99.7516 	 13.5979 	 -119.189 	 
H 	 -100.923 	 14.7776 	 -119.643 	 
H 	 -99.9536 	 14.8602 	 -118.133 	 
H 	 -104.448 	 11.772 	 -122.515 	 
H 	 -96.2806 	 11.7194 	 -122.703 	 
