34

S 	 -53.868 	 12.0247 	 -99.3253 	 
C 	 -52.7548 	 11.2632 	 -98.2385 	 
C 	 -51.4681 	 11.1844 	 -98.7805 	 
C 	 -51.4612 	 11.5589 	 -100.144 	 
C 	 -52.706 	 12.0156 	 -100.58 	 
H 	 -50.6534 	 11.4167 	 -100.827 	 
C 	 -50.2536 	 10.598 	 -98.1433 	 
H 	 -49.6133 	 10.0714 	 -98.8845 	 
H 	 -50.565 	 9.9211 	 -97.3915 	 
C 	 -49.2854 	 11.6419 	 -97.5049 	 
H 	 -49.765 	 12.3232 	 -96.7772 	 
H 	 -48.5167 	 11.1645 	 -96.8353 	 
C 	 -48.4522 	 12.4004 	 -98.6059 	 
H 	 -47.9159 	 11.6661 	 -99.1348 	 
H 	 -49.1598 	 13.1083 	 -99.1712 	 
H 	 -47.6963 	 12.9983 	 -98.1228 	 
S 	 -53.2563 	 14.1715 	 -102.198 	 
C 	 -53.5486 	 13.8881 	 -103.89 	 
C 	 -53.35 	 12.5445 	 -104.233 	 
C 	 -53.1246 	 11.7298 	 -103.089 	 
C 	 -53.0265 	 12.4477 	 -101.938 	 
H 	 -53.4775 	 12.287 	 -105.202 	 
C 	 -53.1508 	 10.1981 	 -103.206 	 
H 	 -52.2159 	 9.85368 	 -102.901 	 
H 	 -53.2249 	 10.037 	 -104.33 	 
C 	 -54.2127 	 9.41977 	 -102.587 	 
H 	 -55.1995 	 9.94517 	 -102.715 	 
H 	 -54.1812 	 9.51324 	 -101.483 	 
C 	 -54.1496 	 7.97966 	 -103.115 	 
H 	 -53.1871 	 7.5476 	 -102.842 	 
H 	 -54.1585 	 8.07454 	 -104.218 	 
H 	 -54.9632 	 7.36693 	 -102.82 	 
H 	 -53.0062 	 11.0673 	 -97.1714 	 
H 	 -53.7634 	 14.6663 	 -104.616 	 
