34

S 	 -40.8126 	 14.7825 	 19.8454 	 
C 	 -42.2863 	 14.9149 	 20.8686 	 
C 	 -43.3382 	 15.506 	 20.1039 	 
C 	 -43.0238 	 15.6962 	 18.7284 	 
C 	 -41.707 	 15.4063 	 18.4174 	 
H 	 -43.745 	 15.8921 	 18.0147 	 
C 	 -44.6735 	 15.7558 	 20.733 	 
H 	 -44.82 	 16.8412 	 20.8524 	 
H 	 -44.6042 	 15.4389 	 21.8354 	 
C 	 -45.97 	 15.086 	 20.073 	 
H 	 -46.0882 	 15.4023 	 19.0409 	 
H 	 -45.883 	 13.9692 	 20.165 	 
C 	 -47.2504 	 15.5171 	 20.847 	 
H 	 -47.3899 	 16.5613 	 20.7478 	 
H 	 -48.1257 	 14.8846 	 20.5591 	 
H 	 -47.1229 	 15.4143 	 21.9707 	 
S 	 -39.9063 	 14.4474 	 16.5931 	 
C 	 -39.6017 	 15.3377 	 15.1037 	 
C 	 -40.5495 	 16.3266 	 14.9197 	 
C 	 -41.3141 	 16.5896 	 16.1144 	 
C 	 -41.1034 	 15.6055 	 17.0985 	 
H 	 -40.471 	 16.9082 	 13.9924 	 
C 	 -42.2724 	 17.7928 	 16.1887 	 
H 	 -41.7132 	 18.6641 	 16.1062 	 
H 	 -42.6752 	 17.7811 	 17.2174 	 
C 	 -43.3677 	 17.7478 	 15.1342 	 
H 	 -42.9402 	 17.9857 	 14.1629 	 
H 	 -44.074 	 18.5219 	 15.3351 	 
C 	 -44.1093 	 16.394 	 15.0131 	 
H 	 -44.8204 	 16.3241 	 14.182 	 
H 	 -44.5354 	 16.2424 	 16.0288 	 
H 	 -43.4348 	 15.5623 	 15.0202 	 
H 	 -42.4886 	 14.6049 	 21.8449 	 
H 	 -38.9588 	 15.1487 	 14.2927 	 
