34

S 	 14.2264 	 -16.4876 	 -120.368 	 
C 	 12.7117 	 -16.9741 	 -120.757 	 
C 	 12.0732 	 -17.6517 	 -119.762 	 
C 	 12.9168 	 -17.8676 	 -118.626 	 
C 	 14.191 	 -17.3926 	 -118.875 	 
H 	 12.5812 	 -18.2764 	 -117.754 	 
C 	 10.6096 	 -17.9307 	 -119.821 	 
H 	 10.4 	 -18.7827 	 -119.128 	 
H 	 10.2566 	 -18.3167 	 -120.791 	 
C 	 9.68808 	 -16.7655 	 -119.503 	 
H 	 9.75684 	 -16.3206 	 -118.523 	 
H 	 10.0076 	 -16.0302 	 -120.273 	 
C 	 8.13419 	 -17.043 	 -119.67 	 
H 	 7.85294 	 -17.459 	 -120.659 	 
H 	 7.79801 	 -17.7757 	 -118.979 	 
H 	 7.52305 	 -16.1509 	 -119.541 	 
S 	 15.86 	 -15.9418 	 -117.194 	 
C 	 16.8883 	 -16.7549 	 -116.028 	 
C 	 16.8505 	 -18.1338 	 -116.245 	 
C 	 15.9086 	 -18.5053 	 -117.308 	 
C 	 15.3506 	 -17.4235 	 -117.982 	 
H 	 17.363 	 -18.8256 	 -115.645 	 
C 	 15.8282 	 -19.9914 	 -117.641 	 
H 	 14.8709 	 -20.2068 	 -118.027 	 
H 	 15.8886 	 -20.6833 	 -116.761 	 
C 	 16.6932 	 -20.3529 	 -118.784 	 
H 	 17.7538 	 -20.3684 	 -118.401 	 
H 	 16.7642 	 -19.6539 	 -119.555 	 
C 	 16.5021 	 -21.8587 	 -119.185 	 
H 	 17.2954 	 -22.2643 	 -119.933 	 
H 	 15.5824 	 -21.9391 	 -119.726 	 
H 	 16.4643 	 -22.573 	 -118.388 	 
H 	 12.1413 	 -16.6345 	 -121.642 	 
H 	 17.4563 	 -16.2203 	 -115.294 	 
