34

S 	 -70.0539 	 -45.0874 	 -93.8609 	 
C 	 -69.5764 	 -43.63 	 -94.6512 	 
C 	 -70.5365 	 -43.23 	 -95.5841 	 
C 	 -71.6374 	 -44.1944 	 -95.6724 	 
C 	 -71.4648 	 -45.2615 	 -94.7835 	 
H 	 -72.4099 	 -44.1643 	 -96.4409 	 
C 	 -70.5353 	 -41.9868 	 -96.3133 	 
H 	 -70.1354 	 -41.1835 	 -95.6033 	 
H 	 -71.6045 	 -41.6827 	 -96.4934 	 
C 	 -69.8134 	 -41.9621 	 -97.619 	 
H 	 -69.6685 	 -40.8587 	 -97.8908 	 
H 	 -68.7974 	 -42.2256 	 -97.4518 	 
C 	 -70.3754 	 -42.7723 	 -98.8306 	 
H 	 -71.4435 	 -42.4865 	 -99.0218 	 
H 	 -69.7509 	 -42.6612 	 -99.6781 	 
H 	 -70.3328 	 -43.8141 	 -98.6215 	 
S 	 -71.3196 	 -48.0734 	 -94.5439 	 
C 	 -72.8393 	 -49.0257 	 -94.5422 	 
C 	 -73.8705 	 -48.1237 	 -94.7673 	 
C 	 -73.5753 	 -46.7263 	 -94.7873 	 
C 	 -72.2296 	 -46.5013 	 -94.6516 	 
H 	 -74.8471 	 -48.5767 	 -94.8106 	 
C 	 -74.6035 	 -45.7229 	 -95.164 	 
H 	 -74.394 	 -44.6702 	 -94.8602 	 
H 	 -75.4915 	 -45.9585 	 -94.685 	 
C 	 -75.0405 	 -45.7464 	 -96.6772 	 
H 	 -75.261 	 -46.794 	 -97.0105 	 
H 	 -74.1123 	 -45.3514 	 -97.2445 	 
C 	 -76.1716 	 -44.7461 	 -97.0593 	 
H 	 -75.7788 	 -43.7684 	 -96.8324 	 
H 	 -77.0918 	 -44.9246 	 -96.5787 	 
H 	 -76.3234 	 -44.7392 	 -98.1754 	 
H 	 -68.5931 	 -43.1392 	 -94.4244 	 
H 	 -72.8106 	 -50.1365 	 -94.5884 	 
