34

S 	 -54.0722 	 -51.5938 	 -87.4841 	 
C 	 -55.209 	 -50.8576 	 -88.5018 	 
C 	 -55.8058 	 -49.7346 	 -87.943 	 
C 	 -55.3177 	 -49.5741 	 -86.6203 	 
C 	 -54.329 	 -50.4233 	 -86.2133 	 
H 	 -55.5829 	 -48.8112 	 -85.7755 	 
C 	 -56.7917 	 -48.7669 	 -88.534 	 
H 	 -56.8723 	 -48.9813 	 -89.6236 	 
H 	 -56.313 	 -47.8766 	 -88.664 	 
C 	 -58.2648 	 -48.634 	 -88.0222 	 
H 	 -58.7875 	 -49.58 	 -88.1128 	 
H 	 -58.2213 	 -48.4538 	 -86.9399 	 
C 	 -59.0672 	 -47.5157 	 -88.7378 	 
H 	 -58.5108 	 -46.6223 	 -88.8522 	 
H 	 -59.6006 	 -47.8446 	 -89.5985 	 
H 	 -59.9156 	 -47.26 	 -88.1342 	 
S 	 -52.8246 	 -49.1456 	 -84.4346 	 
C 	 -52.6225 	 -49.7819 	 -82.8045 	 
C 	 -53.2069 	 -51.0091 	 -82.6918 	 
C 	 -53.9263 	 -51.414 	 -83.8339 	 
C 	 -53.8499 	 -50.4642 	 -84.8772 	 
H 	 -53.0947 	 -51.5238 	 -81.7549 	 
C 	 -54.7446 	 -52.6271 	 -83.8737 	 
H 	 -54.7545 	 -52.9538 	 -84.9036 	 
H 	 -55.7337 	 -52.3901 	 -83.5676 	 
C 	 -54.1911 	 -53.7718 	 -82.9738 	 
H 	 -54.9189 	 -54.5562 	 -83.259 	 
H 	 -54.2326 	 -53.51 	 -81.8905 	 
C 	 -52.8624 	 -54.3796 	 -83.4748 	 
H 	 -53.0477 	 -54.7331 	 -84.5328 	 
H 	 -52.5359 	 -55.2711 	 -82.9448 	 
H 	 -52.0856 	 -53.616 	 -83.3007 	 
H 	 -55.3043 	 -51.0763 	 -89.6 	 
H 	 -51.868 	 -49.5128 	 -82.0976 	 
