34

S 	 -17.4337 	 -30.8838 	 -93.4797 	 
C 	 -16.2279 	 -32.1076 	 -93.8428 	 
C 	 -16.4624 	 -32.672 	 -95.1033 	 
C 	 -17.8315 	 -32.4417 	 -95.5422 	 
C 	 -18.5311 	 -31.6625 	 -94.6024 	 
H 	 -18.2649 	 -32.7684 	 -96.4896 	 
C 	 -15.537 	 -33.6194 	 -95.887 	 
H 	 -14.6645 	 -32.9902 	 -96.029 	 
H 	 -15.8702 	 -33.8386 	 -96.9009 	 
C 	 -15.1964 	 -35.0078 	 -95.1949 	 
H 	 -14.5648 	 -35.4978 	 -95.8854 	 
H 	 -14.5073 	 -34.9688 	 -94.3458 	 
C 	 -16.5124 	 -35.8474 	 -94.8799 	 
H 	 -16.2868 	 -36.915 	 -94.7257 	 
H 	 -17.0579 	 -35.5319 	 -94.0917 	 
H 	 -17.2583 	 -35.682 	 -95.7178 	 
S 	 -20.9965 	 -32.8521 	 -94.2782 	 
C 	 -22.4663 	 -31.8697 	 -94.2018 	 
C 	 -22.1325 	 -30.5533 	 -94.2817 	 
C 	 -20.7749 	 -30.2792 	 -94.5981 	 
C 	 -19.9994 	 -31.443 	 -94.5677 	 
H 	 -22.8336 	 -29.6725 	 -94.0728 	 
C 	 -20.1508 	 -28.8845 	 -94.7868 	 
H 	 -19.731 	 -28.7256 	 -95.8035 	 
H 	 -19.351 	 -28.8268 	 -94.1417 	 
C 	 -20.9679 	 -27.6703 	 -94.5255 	 
H 	 -21.475 	 -27.7182 	 -93.5399 	 
H 	 -21.7299 	 -27.6535 	 -95.2797 	 
C 	 -20.2901 	 -26.3263 	 -94.624 	 
H 	 -19.3419 	 -26.429 	 -95.1464 	 
H 	 -20.0031 	 -25.9219 	 -93.6368 	 
H 	 -20.958 	 -25.5645 	 -95.0943 	 
H 	 -15.2247 	 -32.152 	 -93.4098 	 
H 	 -23.3585 	 -32.1752 	 -93.9929 	 
