34

S 	 -48.0295 	 13.5656 	 24.7318 	 
C 	 -49.218 	 14.0713 	 25.9515 	 
C 	 -50.5065 	 13.8793 	 25.487 	 
C 	 -50.5229 	 13.5926 	 24.136 	 
C 	 -49.3163 	 13.5167 	 23.4578 	 
H 	 -51.4394 	 13.4235 	 23.5544 	 
C 	 -51.747 	 13.978 	 26.4014 	 
H 	 -52.5564 	 14.2252 	 25.7239 	 
H 	 -51.6161 	 14.8952 	 26.9538 	 
C 	 -52.088 	 12.6996 	 27.1602 	 
H 	 -51.2616 	 12.3434 	 27.8141 	 
H 	 -52.8827 	 13.1112 	 27.7577 	 
C 	 -52.5962 	 11.6344 	 26.2346 	 
H 	 -51.8411 	 11.059 	 25.702 	 
H 	 -53.0939 	 10.9096 	 26.8227 	 
H 	 -53.2625 	 11.9852 	 25.4396 	 
S 	 -47.8403 	 12.0158 	 21.6533 	 
C 	 -48.1992 	 12.1422 	 19.9088 	 
C 	 -49.3034 	 12.9047 	 19.6843 	 
C 	 -49.8574 	 13.5407 	 20.8548 	 
C 	 -49.1185 	 13.1671 	 22.019 	 
H 	 -49.5585 	 12.9573 	 18.6134 	 
C 	 -51.0415 	 14.4978 	 20.8178 	 
H 	 -51.3429 	 14.9312 	 21.7869 	 
H 	 -51.8327 	 13.8782 	 20.4718 	 
C 	 -50.7467 	 15.7278 	 19.853 	 
H 	 -50.2606 	 15.332 	 18.946 	 
H 	 -49.9397 	 16.3986 	 20.2232 	 
C 	 -51.9719 	 16.6262 	 19.5351 	 
H 	 -51.5131 	 17.5221 	 19.1458 	 
H 	 -52.5621 	 16.9539 	 20.4581 	 
H 	 -52.6577 	 16.2934 	 18.7714 	 
H 	 -49.0898 	 14.1443 	 26.9562 	 
H 	 -47.6516 	 11.6205 	 19.1027 	 
