34

S 	 -91.4235 	 -9.24862 	 -110.776 	 
C 	 -92.5201 	 -10.1191 	 -111.849 	 
C 	 -92.545 	 -9.51502 	 -113.13 	 
C 	 -91.4927 	 -8.51533 	 -113.278 	 
C 	 -90.7525 	 -8.35579 	 -112.166 	 
H 	 -91.2965 	 -8.01719 	 -114.223 	 
C 	 -93.5748 	 -9.92059 	 -114.171 	 
H 	 -94.3726 	 -10.3496 	 -113.629 	 
H 	 -93.2061 	 -10.8166 	 -114.689 	 
C 	 -94.0484 	 -8.80015 	 -115.134 	 
H 	 -93.2242 	 -8.30817 	 -115.555 	 
H 	 -94.6753 	 -9.24588 	 -115.934 	 
C 	 -94.8582 	 -7.73137 	 -114.385 	 
H 	 -95.1561 	 -7.0779 	 -115.221 	 
H 	 -95.7944 	 -8.25949 	 -114.005 	 
H 	 -94.4222 	 -7.15223 	 -113.601 	 
S 	 -88.1462 	 -8.35489 	 -111.343 	 
C 	 -87.1797 	 -6.87485 	 -111.533 	 
C 	 -87.8864 	 -5.88815 	 -112.17 	 
C 	 -89.217 	 -6.27699 	 -112.531 	 
C 	 -89.5637 	 -7.50955 	 -112.043 	 
H 	 -87.4538 	 -4.96523 	 -112.484 	 
C 	 -90.1682 	 -5.29572 	 -113.207 	 
H 	 -90.7359 	 -5.87383 	 -113.791 	 
H 	 -89.6788 	 -4.63308 	 -113.899 	 
C 	 -91.097 	 -4.5136 	 -112.293 	 
H 	 -91.8789 	 -5.08394 	 -111.921 	 
H 	 -91.6341 	 -3.88819 	 -113.023 	 
C 	 -90.3028 	 -3.65322 	 -111.217 	 
H 	 -90.9621 	 -3.03379 	 -110.603 	 
H 	 -89.6248 	 -2.98054 	 -111.779 	 
H 	 -89.7645 	 -4.25462 	 -110.523 	 
H 	 -93.2694 	 -10.8743 	 -111.514 	 
H 	 -86.089 	 -6.81774 	 -111.275 	 
