34

S 	 -144.653 	 7.87515 	 -0.963422 	 
C 	 -144.032 	 9.46103 	 -0.523579 	 
C 	 -142.645 	 9.41949 	 -0.321673 	 
C 	 -142.142 	 8.1121 	 -0.743147 	 
C 	 -143.142 	 7.20251 	 -1.15163 	 
H 	 -141.157 	 7.84453 	 -0.776254 	 
C 	 -141.689 	 10.5127 	 0.125476 	 
H 	 -141.201 	 10.8817 	 -0.829363 	 
H 	 -140.823 	 10.0604 	 0.606047 	 
C 	 -142.309 	 11.7212 	 0.994406 	 
H 	 -143.012 	 12.1791 	 0.301254 	 
H 	 -142.925 	 11.2993 	 1.79984 	 
C 	 -141.237 	 12.7087 	 1.50442 	 
H 	 -140.857 	 12.1297 	 2.38625 	 
H 	 -140.494 	 12.9839 	 0.77643 	 
H 	 -141.792 	 13.6473 	 1.80787 	 
S 	 -143.709 	 4.63343 	 -0.653774 	 
C 	 -143.39 	 3.42307 	 -1.91811 	 
C 	 -142.615 	 3.99497 	 -2.93421 	 
C 	 -142.352 	 5.3563 	 -2.77059 	 
C 	 -142.956 	 5.88773 	 -1.69356 	 
H 	 -142.338 	 3.30862 	 -3.73352 	 
C 	 -141.505 	 6.1239 	 -3.76427 	 
H 	 -140.554 	 6.18212 	 -3.26096 	 
H 	 -141.742 	 7.22414 	 -3.89363 	 
C 	 -141.419 	 5.52726 	 -5.18195 	 
H 	 -140.855 	 4.64991 	 -5.23031 	 
H 	 -140.782 	 6.11725 	 -5.80394 	 
C 	 -142.701 	 5.49656 	 -6.06677 	 
H 	 -143.38 	 4.73796 	 -5.68621 	 
H 	 -142.419 	 5.38958 	 -7.07026 	 
H 	 -143.354 	 6.37011 	 -5.89743 	 
H 	 -144.577 	 10.3433 	 -0.263069 	 
H 	 -143.823 	 2.42243 	 -1.91253 	 
