34

S 	 -35.7149 	 -10.5226 	 5.8544 	 
C 	 -34.8152 	 -9.9767 	 7.3336 	 
C 	 -35.2332 	 -8.7379 	 7.72532 	 
C 	 -36.1668 	 -8.16882 	 6.80276 	 
C 	 -36.674 	 -9.03124 	 5.81813 	 
H 	 -36.556 	 -7.21769 	 6.9959 	 
C 	 -34.725 	 -7.97422 	 8.91961 	 
H 	 -35.0621 	 -6.93274 	 8.74364 	 
H 	 -33.6404 	 -7.93248 	 8.91913 	 
C 	 -35.2412 	 -8.49847 	 10.2735 	 
H 	 -35.0855 	 -9.5863 	 10.4022 	 
H 	 -34.7305 	 -8.07886 	 11.1547 	 
C 	 -36.7259 	 -8.34301 	 10.5335 	 
H 	 -37.4657 	 -9.15118 	 10.3112 	 
H 	 -36.8553 	 -8.21036 	 11.5898 	 
H 	 -37.0033 	 -7.39333 	 9.95655 	 
S 	 -38.8502 	 -10.0322 	 4.42014 	 
C 	 -39.8738 	 -8.86053 	 3.58148 	 
C 	 -39.4056 	 -7.60074 	 3.63285 	 
C 	 -38.1806 	 -7.47154 	 4.34974 	 
C 	 -37.7499 	 -8.71049 	 4.87008 	 
H 	 -39.9954 	 -6.78693 	 3.24209 	 
C 	 -37.4875 	 -6.16466 	 4.54201 	 
H 	 -37.56 	 -5.97422 	 5.59076 	 
H 	 -37.9815 	 -5.2808 	 4.10829 	 
C 	 -36.0543 	 -6.16497 	 3.97161 	 
H 	 -36.0886 	 -5.9746 	 2.88977 	 
H 	 -35.4253 	 -7.01243 	 4.14901 	 
C 	 -35.1453 	 -5.02062 	 4.54094 	 
H 	 -35.6194 	 -4.03008 	 4.58063 	 
H 	 -34.2996 	 -4.99503 	 3.90283 	 
H 	 -34.6564 	 -5.13197 	 5.48497 	 
H 	 -34.1221 	 -10.5025 	 7.98883 	 
H 	 -40.665 	 -9.07305 	 2.93657 	 
