34

S 	 -62.0422 	 8.63989 	 -76.5529 	 
C 	 -61.3997 	 10.1184 	 -76.0449 	 
C 	 -62.3599 	 11.0523 	 -75.6807 	 
C 	 -63.6636 	 10.5082 	 -75.893 	 
C 	 -63.6571 	 9.21107 	 -76.3932 	 
H 	 -64.5134 	 11.0241 	 -75.6657 	 
C 	 -62.1115 	 12.4244 	 -75.2435 	 
H 	 -62.5684 	 13.0216 	 -76.0522 	 
H 	 -61.0245 	 12.5453 	 -75.2412 	 
C 	 -62.7565 	 12.7703 	 -73.9147 	 
H 	 -62.5541 	 13.8476 	 -73.7424 	 
H 	 -63.9086 	 12.5177 	 -73.9513 	 
C 	 -62.2307 	 12.0154 	 -72.7076 	 
H 	 -62.6172 	 12.4656 	 -71.8692 	 
H 	 -62.5633 	 10.9822 	 -72.8125 	 
H 	 -61.1452 	 12.2077 	 -72.7398 	 
S 	 -65.0597 	 8.04613 	 -78.503 	 
C 	 -66.2842 	 6.87693 	 -78.2098 	 
C 	 -66.7568 	 6.99202 	 -76.9377 	 
C 	 -65.8403 	 7.77136 	 -76.0978 	 
C 	 -64.8076 	 8.37195 	 -76.7692 	 
H 	 -67.5536 	 6.46482 	 -76.5085 	 
C 	 -66.0246 	 7.954 	 -74.6153 	 
H 	 -67.1361 	 7.80065 	 -74.3316 	 
H 	 -65.808 	 8.9707 	 -74.5037 	 
C 	 -65.0739 	 7.20914 	 -73.6664 	 
H 	 -65.2153 	 7.7479 	 -72.7335 	 
H 	 -63.9744 	 7.40346 	 -73.8496 	 
C 	 -65.3548 	 5.75509 	 -73.6239 	 
H 	 -64.8277 	 5.3705 	 -72.7296 	 
H 	 -65.1107 	 5.27814 	 -74.56 	 
H 	 -66.4313 	 5.64093 	 -73.2608 	 
H 	 -60.3597 	 10.3349 	 -76.0928 	 
H 	 -66.8075 	 6.36594 	 -79.0642 	 
