34

S 	 -75.521 	 9.33827 	 -105.485 	 
C 	 -76.6702 	 10.4915 	 -106.126 	 
C 	 -77.2526 	 10.0245 	 -107.342 	 
C 	 -76.6686 	 8.75641 	 -107.689 	 
C 	 -75.6754 	 8.29207 	 -106.85 	 
H 	 -77.1482 	 8.05641 	 -108.323 	 
C 	 -78.4345 	 10.5856 	 -108.138 	 
H 	 -78.7892 	 11.4986 	 -107.682 	 
H 	 -79.2163 	 9.86454 	 -108.051 	 
C 	 -78.1486 	 10.8245 	 -109.639 	 
H 	 -77.2499 	 11.3728 	 -109.91 	 
H 	 -78.067 	 9.91256 	 -110.15 	 
C 	 -79.2841 	 11.592 	 -110.244 	 
H 	 -79.4031 	 12.5466 	 -109.663 	 
H 	 -79.023 	 11.791 	 -111.282 	 
H 	 -80.2504 	 11.0131 	 -110.24 	 
S 	 -74.8747 	 6.18519 	 -105.237 	 
C 	 -74.562 	 4.60469 	 -105.973 	 
C 	 -74.4218 	 4.68397 	 -107.319 	 
C 	 -74.918 	 5.97361 	 -107.81 	 
C 	 -75.2062 	 6.88989 	 -106.845 	 
H 	 -74.2123 	 3.8065 	 -107.955 	 
C 	 -74.8168 	 6.30694 	 -109.311 	 
H 	 -73.7904 	 6.101 	 -109.695 	 
H 	 -75.0327 	 7.39187 	 -109.382 	 
C 	 -75.7929 	 5.57763 	 -110.197 	 
H 	 -76.8076 	 5.52807 	 -109.733 	 
H 	 -75.4294 	 4.59774 	 -110.464 	 
C 	 -75.8804 	 6.37059 	 -111.493 	 
H 	 -76.5297 	 7.30979 	 -111.437 	 
H 	 -76.3514 	 5.84687 	 -112.227 	 
H 	 -75.014 	 6.73025 	 -111.978 	 
H 	 -77.0276 	 11.2677 	 -105.516 	 
H 	 -74.3647 	 3.73281 	 -105.387 	 
