34

S 	 -0.53245 	 -24.0311 	 -106.573 	 
C 	 -0.16786 	 -23.8582 	 -108.229 	 
C 	 -1.15028 	 -24.4502 	 -109.069 	 
C 	 -2.1674 	 -25.0983 	 -108.288 	 
C 	 -2.09002 	 -24.7825 	 -106.936 	 
H 	 -2.97349 	 -25.711 	 -108.627 	 
C 	 -1.01435 	 -24.557 	 -110.562 	 
H 	 -1.86896 	 -25.0224 	 -111.053 	 
H 	 -0.24181 	 -25.3174 	 -110.723 	 
C 	 -0.772574 	 -23.2454 	 -111.366 	 
H 	 -1.46179 	 -22.4861 	 -111.033 	 
H 	 0.235897 	 -22.7757 	 -111.135 	 
C 	 -0.864894 	 -23.3621 	 -112.92 	 
H 	 -0.0927813 	 -24.0287 	 -113.32 	 
H 	 -1.83349 	 -23.7271 	 -113.273 	 
H 	 -0.600429 	 -22.3443 	 -113.396 	 
S 	 -2.62401 	 -26.1617 	 -104.529 	 
C 	 -4.18155 	 -25.9902 	 -103.779 	 
C 	 -5.03828 	 -25.305 	 -104.555 	 
C 	 -4.46321 	 -24.788 	 -105.766 	 
C 	 -3.07993 	 -25.1002 	 -105.867 	 
H 	 -6.00588 	 -25.1938 	 -104.093 	 
C 	 -5.26717 	 -24.0183 	 -106.814 	 
H 	 -4.50967 	 -23.5955 	 -107.414 	 
H 	 -5.89145 	 -23.2906 	 -106.254 	 
C 	 -6.11853 	 -24.8407 	 -107.832 	 
H 	 -5.55182 	 -25.6267 	 -108.33 	 
H 	 -6.4212 	 -24.173 	 -108.659 	 
C 	 -7.32797 	 -25.4661 	 -107.183 	 
H 	 -7.7226 	 -24.6954 	 -106.5 	 
H 	 -7.08882 	 -26.3358 	 -106.613 	 
H 	 -7.97762 	 -25.7539 	 -108.001 	 
H 	 0.840412 	 -23.6796 	 -108.571 	 
H 	 -4.35497 	 -26.5884 	 -102.892 	 
