34

S 	 -108.816 	 68.3716 	 -5.54259 	 
C 	 -108.143 	 68.7855 	 -7.15849 	 
C 	 -107.784 	 67.6484 	 -7.83916 	 
C 	 -108.07 	 66.4249 	 -7.05777 	 
C 	 -108.585 	 66.6323 	 -5.80284 	 
H 	 -107.828 	 65.4116 	 -7.48284 	 
C 	 -107.072 	 67.5668 	 -9.20648 	 
H 	 -107.203 	 68.511 	 -9.70973 	 
H 	 -107.423 	 66.8536 	 -9.92497 	 
C 	 -105.532 	 67.4867 	 -8.9568 	 
H 	 -105.238 	 68.2341 	 -8.21726 	 
H 	 -105.375 	 66.5214 	 -8.42724 	 
C 	 -104.782 	 67.7394 	 -10.27 	 
H 	 -104.655 	 66.8685 	 -10.9102 	 
H 	 -105.029 	 68.6526 	 -10.8366 	 
H 	 -103.769 	 67.9328 	 -9.97575 	 
S 	 -108.011 	 65.7378 	 -3.33367 	 
C 	 -108.84 	 64.399 	 -2.62583 	 
C 	 -109.74 	 63.829 	 -3.53411 	 
C 	 -109.724 	 64.5291 	 -4.78612 	 
C 	 -108.905 	 65.6331 	 -4.79764 	 
H 	 -110.367 	 62.9687 	 -3.26667 	 
C 	 -110.589 	 64.2175 	 -5.95624 	 
H 	 -110.815 	 63.171 	 -6.07851 	 
H 	 -110.012 	 64.5516 	 -6.87255 	 
C 	 -112.028 	 64.8183 	 -5.90215 	 
H 	 -112.728 	 64.3499 	 -5.19545 	 
H 	 -112.507 	 64.673 	 -6.88376 	 
C 	 -111.983 	 66.3297 	 -5.66714 	 
H 	 -112.951 	 66.8084 	 -5.69819 	 
H 	 -111.23 	 66.7923 	 -6.31282 	 
H 	 -111.63 	 66.4751 	 -4.65332 	 
H 	 -107.872 	 69.7478 	 -7.49807 	 
H 	 -108.67 	 63.951 	 -1.65191 	 
