34

S 	 -111.479 	 58.5673 	 -74.2002 	 
C 	 -110.741 	 59.7451 	 -75.2614 	 
C 	 -111.319 	 61.044 	 -75.065 	 
C 	 -112.107 	 61.0586 	 -73.8204 	 
C 	 -112.284 	 59.7773 	 -73.3111 	 
H 	 -112.653 	 61.8164 	 -73.2478 	 
C 	 -111.066 	 62.3102 	 -75.788 	 
H 	 -110.102 	 62.6212 	 -75.404 	 
H 	 -111.793 	 63.0213 	 -75.3828 	 
C 	 -110.88 	 62.3191 	 -77.3529 	 
H 	 -110.763 	 63.3289 	 -77.7325 	 
H 	 -109.964 	 61.8189 	 -77.5661 	 
C 	 -112.031 	 61.6955 	 -78.1269 	 
H 	 -111.808 	 61.5115 	 -79.1982 	 
H 	 -112.355 	 60.7159 	 -77.7407 	 
H 	 -112.917 	 62.3302 	 -78.0877 	 
S 	 -112.238 	 59.0386 	 -70.6857 	 
C 	 -113.732 	 58.8269 	 -69.8675 	 
C 	 -114.821 	 59.1607 	 -70.6099 	 
C 	 -114.506 	 59.436 	 -71.9618 	 
C 	 -113.116 	 59.4345 	 -72.1668 	 
H 	 -115.795 	 59.0984 	 -70.1955 	 
C 	 -115.566 	 59.5785 	 -73.0897 	 
H 	 -115.186 	 59.2586 	 -74.0788 	 
H 	 -115.765 	 60.6338 	 -73.2001 	 
C 	 -116.939 	 58.7463 	 -72.8442 	 
H 	 -117.456 	 59.1087 	 -71.9889 	 
H 	 -116.634 	 57.7456 	 -72.4748 	 
C 	 -117.852 	 58.5544 	 -74.0464 	 
H 	 -118.797 	 58.016 	 -73.8292 	 
H 	 -117.468 	 58.15 	 -74.9101 	 
H 	 -118.154 	 59.6177 	 -74.2935 	 
H 	 -110.04 	 59.539 	 -76.0226 	 
H 	 -113.809 	 58.4964 	 -68.9369 	 
