34

S 	 -120.999 	 63.7523 	 -39.0764 	 
C 	 -119.805 	 64.9103 	 -39.6308 	 
C 	 -119.837 	 66.0237 	 -38.7863 	 
C 	 -120.831 	 66.0057 	 -37.7316 	 
C 	 -121.492 	 64.8161 	 -37.6297 	 
H 	 -120.855 	 66.7271 	 -36.9435 	 
C 	 -119.01 	 67.2367 	 -39.0065 	 
H 	 -118.065 	 67.1396 	 -38.6098 	 
H 	 -119.487 	 68.0322 	 -38.4271 	 
C 	 -118.908 	 67.6914 	 -40.5004 	 
H 	 -118.266 	 68.5431 	 -40.5562 	 
H 	 -118.276 	 67.1009 	 -41.1681 	 
C 	 -120.304 	 67.9553 	 -41.2175 	 
H 	 -120.916 	 67.0741 	 -41.3425 	 
H 	 -120.961 	 68.5787 	 -40.5825 	 
H 	 -120.189 	 68.47 	 -42.155 	 
S 	 -124.069 	 63.7964 	 -36.947 	 
C 	 -124.623 	 63.989 	 -35.3163 	 
C 	 -123.616 	 64.6204 	 -34.5794 	 
C 	 -122.396 	 64.8583 	 -35.2631 	 
C 	 -122.478 	 64.5519 	 -36.601 	 
H 	 -123.836 	 64.8576 	 -33.539 	 
C 	 -121.274 	 65.5568 	 -34.4816 	 
H 	 -121.727 	 65.9371 	 -33.5356 	 
H 	 -120.792 	 66.4344 	 -34.8616 	 
C 	 -120.131 	 64.6133 	 -34.0499 	 
H 	 -119.744 	 64.2278 	 -35.0281 	 
H 	 -120.358 	 63.6974 	 -33.5313 	 
C 	 -119.128 	 65.2813 	 -33.1632 	 
H 	 -118.504 	 64.561 	 -32.7023 	 
H 	 -119.654 	 65.7196 	 -32.4155 	 
H 	 -118.404 	 65.9955 	 -33.6083 	 
H 	 -119.35 	 64.9539 	 -40.6057 	 
H 	 -125.557 	 63.664 	 -34.896 	 
