34

S 	 -55.6171 	 16.2322 	 28.2207 	 
C 	 -56.9655 	 15.2301 	 27.8721 	 
C 	 -56.7326 	 13.9122 	 28.3304 	 
C 	 -55.4469 	 13.783 	 28.911 	 
C 	 -54.7141 	 14.967 	 28.8892 	 
H 	 -55.0535 	 12.8448 	 29.2557 	 
C 	 -57.7931 	 12.7275 	 28.1569 	 
H 	 -57.2348 	 11.8102 	 28.2298 	 
H 	 -58.1464 	 12.743 	 27.1508 	 
C 	 -58.9129 	 12.6143 	 29.1016 	 
H 	 -58.5991 	 12.1419 	 30.0434 	 
H 	 -59.1823 	 13.6514 	 29.3715 	 
C 	 -60.0409 	 11.6652 	 28.6123 	 
H 	 -60.7887 	 11.5804 	 29.3646 	 
H 	 -60.5903 	 11.9733 	 27.7232 	 
H 	 -59.5962 	 10.7272 	 28.3756 	 
S 	 -53.1658 	 14.7798 	 31.1637 	 
C 	 -51.4643 	 15.0254 	 30.9956 	 
C 	 -51.0918 	 15.4741 	 29.7223 	 
C 	 -52.2418 	 15.638 	 28.8341 	 
C 	 -53.3877 	 15.2125 	 29.4661 	 
H 	 -49.9848 	 15.6146 	 29.5224 	 
C 	 -52.0932 	 16.1335 	 27.3882 	 
H 	 -52.7594 	 15.68 	 26.6916 	 
H 	 -50.9941 	 15.8281 	 27.1318 	 
C 	 -52.2695 	 17.7311 	 27.3486 	 
H 	 -53.3125 	 17.9455 	 27.6667 	 
H 	 -52.1319 	 17.9615 	 26.3013 	 
C 	 -51.2516 	 18.583 	 28.1578 	 
H 	 -51.462 	 19.6603 	 28.102 	 
H 	 -50.1714 	 18.5189 	 27.8901 	 
H 	 -51.4232 	 18.2531 	 29.2584 	 
H 	 -57.8985 	 15.5144 	 27.5369 	 
H 	 -50.747 	 14.748 	 31.8035 	 
