34

S 	 -41.6073 	 -39.977 	 -77.3632 	 
C 	 -43.1702 	 -40.1557 	 -76.611 	 
C 	 -43.0793 	 -40.8569 	 -75.416 	 
C 	 -41.8311 	 -41.45 	 -75.2341 	 
C 	 -40.9046 	 -41.1835 	 -76.2485 	 
H 	 -41.6533 	 -41.9609 	 -74.3237 	 
C 	 -44.2306 	 -41.0764 	 -74.4358 	 
H 	 -44.0137 	 -41.8358 	 -73.6703 	 
H 	 -45.0692 	 -41.4442 	 -74.9205 	 
C 	 -44.8332 	 -39.7608 	 -73.9109 	 
H 	 -44.133 	 -39.1715 	 -73.2983 	 
H 	 -45.3073 	 -39.2079 	 -74.6955 	 
C 	 -45.9412 	 -40.0182 	 -72.8216 	 
H 	 -46.9234 	 -40.2755 	 -73.2559 	 
H 	 -45.7416 	 -40.744 	 -72.0001 	 
H 	 -46.2878 	 -39.112 	 -72.4117 	 
S 	 -39.1819 	 -43.3406 	 -76.5393 	 
C 	 -37.4221 	 -43.0642 	 -76.7352 	 
C 	 -37.1438 	 -41.7375 	 -76.4993 	 
C 	 -38.3408 	 -40.921 	 -76.2512 	 
C 	 -39.5491 	 -41.6415 	 -76.3183 	 
H 	 -36.1228 	 -41.4672 	 -76.6549 	 
C 	 -38.2886 	 -39.3793 	 -76.1058 	 
H 	 -37.4373 	 -39.0141 	 -75.5692 	 
H 	 -39.2008 	 -39.1447 	 -75.519 	 
C 	 -38.218 	 -38.6737 	 -77.473 	 
H 	 -39.1272 	 -38.9836 	 -78.0059 	 
H 	 -37.3521 	 -39.0699 	 -77.9139 	 
C 	 -38.1849 	 -37.1197 	 -77.4149 	 
H 	 -37.9231 	 -36.6667 	 -76.4458 	 
H 	 -39.212 	 -36.7469 	 -77.6536 	 
H 	 -37.519 	 -36.704 	 -78.1115 	 
H 	 -44.0458 	 -39.7349 	 -77.0342 	 
H 	 -36.594 	 -43.7541 	 -76.8945 	 
