34

S 	 -56.9845 	 14.5821 	 -88.7779 	 
C 	 -55.6555 	 15.7048 	 -88.9943 	 
C 	 -54.9418 	 15.441 	 -90.1556 	 
C 	 -55.583 	 14.5197 	 -91.0027 	 
C 	 -56.7622 	 13.9491 	 -90.402 	 
H 	 -55.3356 	 14.2363 	 -92.0393 	 
C 	 -53.714 	 16.1522 	 -90.5747 	 
H 	 -52.986 	 15.3452 	 -90.8463 	 
H 	 -53.289 	 16.5781 	 -89.6329 	 
C 	 -53.9195 	 17.213 	 -91.6965 	 
H 	 -54.5506 	 17.8688 	 -91.2547 	 
H 	 -53.0995 	 17.9703 	 -91.8339 	 
C 	 -54.3152 	 16.7101 	 -93.1123 	 
H 	 -55.3048 	 16.2553 	 -93.1776 	 
H 	 -54.3732 	 17.5733 	 -93.6694 	 
H 	 -53.5268 	 15.9207 	 -93.272 	 
S 	 -59.2513 	 13.5981 	 -91.5664 	 
C 	 -59.6828 	 12.222 	 -92.5106 	 
C 	 -58.5691 	 11.4591 	 -92.7074 	 
C 	 -57.424 	 11.8386 	 -91.9103 	 
C 	 -57.6597 	 12.976 	 -91.074 	 
H 	 -58.6634 	 10.5496 	 -93.2305 	 
C 	 -56.1196 	 11.0871 	 -92.0247 	 
H 	 -56.385 	 10.0354 	 -91.7824 	 
H 	 -55.4662 	 11.3722 	 -91.1956 	 
C 	 -55.4777 	 10.9752 	 -93.391 	 
H 	 -55.6407 	 11.8907 	 -93.9972 	 
H 	 -55.8304 	 10.2109 	 -94.1321 	 
C 	 -53.991 	 10.6574 	 -93.1791 	 
H 	 -53.8381 	 9.68645 	 -92.7741 	 
H 	 -53.5686 	 11.4684 	 -92.5499 	 
H 	 -53.4725 	 10.5678 	 -94.0893 	 
H 	 -55.2685 	 16.4264 	 -88.2712 	 
H 	 -60.6361 	 12.0225 	 -93.0218 	 
