34

S 	 -45.1171 	 15.5319 	 19.5392 	 
C 	 -44.851 	 14.4918 	 18.1876 	 
C 	 -44.4784 	 13.2457 	 18.5224 	 
C 	 -44.3973 	 13.1049 	 19.9522 	 
C 	 -44.5989 	 14.2697 	 20.6387 	 
H 	 -44.1248 	 12.2951 	 20.4019 	 
C 	 -44.2011 	 12.1869 	 17.5074 	 
H 	 -44.3701 	 12.6546 	 16.5207 	 
H 	 -44.7334 	 11.2691 	 17.7009 	 
C 	 -42.7292 	 11.6928 	 17.5205 	 
H 	 -42.5297 	 11.1093 	 18.4579 	 
H 	 -42.7365 	 10.9499 	 16.6942 	 
C 	 -41.7922 	 12.8166 	 17.3354 	 
H 	 -41.4002 	 13.2693 	 18.2182 	 
H 	 -40.9033 	 12.5082 	 16.8187 	 
H 	 -42.0763 	 13.596 	 16.6688 	 
S 	 -46.2704 	 15.1202 	 22.7353 	 
C 	 -45.628 	 15.177 	 24.3138 	 
C 	 -44.3161 	 14.7924 	 24.3827 	 
C 	 -43.7955 	 14.3249 	 23.1046 	 
C 	 -44.6968 	 14.4689 	 22.0826 	 
H 	 -43.9077 	 14.9097 	 25.3297 	 
C 	 -42.3124 	 13.8652 	 22.9935 	 
H 	 -41.7799 	 14.6631 	 23.48 	 
H 	 -41.9673 	 14.0249 	 21.9508 	 
C 	 -41.8917 	 12.5772 	 23.7594 	 
H 	 -42.328 	 12.5254 	 24.7204 	 
H 	 -40.7876 	 12.59 	 23.9814 	 
C 	 -42.2595 	 11.3114 	 23.0881 	 
H 	 -41.8386 	 10.3687 	 23.5775 	 
H 	 -41.9265 	 11.2642 	 22.0287 	 
H 	 -43.3864 	 11.1305 	 23.2322 	 
H 	 -44.9175 	 14.7082 	 17.1323 	 
H 	 -46.1524 	 15.5809 	 25.2097 	 
