34

S 	 -61.0239 	 -59.5752 	 -80.6627 	 
C 	 -62.0789 	 -60.7948 	 -79.8702 	 
C 	 -63.3618 	 -60.7193 	 -80.4058 	 
C 	 -63.5818 	 -59.6267 	 -81.2912 	 
C 	 -62.4642 	 -58.83 	 -81.4191 	 
H 	 -64.5135 	 -59.3504 	 -81.8017 	 
C 	 -64.4769 	 -61.6413 	 -79.9822 	 
H 	 -63.9546 	 -62.5073 	 -79.5825 	 
H 	 -65.0544 	 -61.9822 	 -80.8232 	 
C 	 -65.4976 	 -60.8719 	 -79.0301 	 
H 	 -65.4893 	 -59.6992 	 -79.1791 	 
H 	 -66.5804 	 -61.1326 	 -79.206 	 
C 	 -65.2351 	 -61.1882 	 -77.601 	 
H 	 -64.2625 	 -60.7224 	 -77.3556 	 
H 	 -65.9533 	 -60.7558 	 -76.882 	 
H 	 -65.0744 	 -62.2732 	 -77.4451 	 
S 	 -61.1944 	 -57.5092 	 -83.4597 	 
C 	 -61.1924 	 -55.7798 	 -83.298 	 
C 	 -62.2448 	 -55.3146 	 -82.5379 	 
C 	 -62.9031 	 -56.387 	 -81.8491 	 
C 	 -62.3701 	 -57.6194 	 -82.1831 	 
H 	 -62.3503 	 -54.3027 	 -82.3941 	 
C 	 -63.7574 	 -56.0888 	 -80.6824 	 
H 	 -64.5388 	 -56.8718 	 -80.5238 	 
H 	 -64.346 	 -55.1867 	 -80.9153 	 
C 	 -62.9001 	 -56.1828 	 -79.362 	 
H 	 -61.9813 	 -55.5426 	 -79.36 	 
H 	 -62.6187 	 -57.2581 	 -79.0954 	 
C 	 -63.7879 	 -55.7266 	 -78.1578 	 
H 	 -64.4481 	 -56.6089 	 -77.8818 	 
H 	 -64.4703 	 -54.8846 	 -78.3506 	 
H 	 -63.2108 	 -55.566 	 -77.2537 	 
H 	 -61.7593 	 -61.6358 	 -79.265 	 
H 	 -60.4613 	 -55.1748 	 -83.834 	 
