34

S 	 -98.2709 	 1.35916 	 -105.788 	 
C 	 -98.5645 	 2.7015 	 -106.962 	 
C 	 -99.6916 	 3.43508 	 -106.612 	 
C 	 -100.412 	 2.90404 	 -105.509 	 
C 	 -99.8347 	 1.71536 	 -105.041 	 
H 	 -101.374 	 3.23841 	 -105.099 	 
C 	 -100.215 	 4.67502 	 -107.375 	 
H 	 -101.153 	 4.89726 	 -106.881 	 
H 	 -100.601 	 4.43943 	 -108.421 	 
C 	 -99.2925 	 5.94804 	 -107.406 	 
H 	 -99.144 	 6.26501 	 -106.396 	 
H 	 -98.389 	 5.69687 	 -107.806 	 
C 	 -99.9702 	 7.04162 	 -108.19 	 
H 	 -100.27 	 6.74428 	 -109.188 	 
H 	 -100.884 	 7.22489 	 -107.643 	 
H 	 -99.4224 	 7.9367 	 -108.141 	 
S 	 -99.5507 	 0.734432 	 -102.43 	 
C 	 -100.668 	 -0.439585 	 -101.828 	 
C 	 -101.701 	 -0.72193 	 -102.768 	 
C 	 -101.552 	 0.102421 	 -103.921 	 
C 	 -100.401 	 0.854656 	 -104.027 	 
H 	 -102.439 	 -1.3979 	 -102.574 	 
C 	 -102.585 	 -0.155851 	 -104.988 	 
H 	 -102.335 	 0.630711 	 -105.75 	 
H 	 -103.571 	 0.0203623 	 -104.563 	 
C 	 -102.605 	 -1.52692 	 -105.694 	 
H 	 -102.799 	 -2.41998 	 -105.048 	 
H 	 -101.679 	 -1.67125 	 -106.236 	 
C 	 -103.627 	 -1.5414 	 -106.824 	 
H 	 -103.581 	 -2.42618 	 -107.5 	 
H 	 -103.562 	 -0.778168 	 -107.518 	 
H 	 -104.611 	 -1.44295 	 -106.32 	 
H 	 -98.0228 	 2.90283 	 -107.9 	 
H 	 -100.709 	 -0.970873 	 -100.836 	 
