34

S 	 -39.0493 	 -42.2069 	 -78.6439 	 
C 	 -39.4904 	 -40.5863 	 -78.1822 	 
C 	 -38.4753 	 -39.6672 	 -78.3379 	 
C 	 -37.2927 	 -40.2391 	 -78.8563 	 
C 	 -37.4241 	 -41.6199 	 -79.1648 	 
H 	 -36.3921 	 -39.7619 	 -79.0883 	 
C 	 -38.478 	 -38.162 	 -78.1261 	 
H 	 -37.51 	 -37.7272 	 -77.8498 	 
H 	 -39.0747 	 -38.0017 	 -77.2508 	 
C 	 -39.0933 	 -37.4414 	 -79.2182 	 
H 	 -38.5421 	 -37.5907 	 -80.1918 	 
H 	 -40.1191 	 -37.7982 	 -79.2943 	 
C 	 -39.1806 	 -35.9302 	 -78.9579 	 
H 	 -38.2516 	 -35.509 	 -79.3832 	 
H 	 -39.9023 	 -35.508 	 -79.5687 	 
H 	 -39.3533 	 -35.6179 	 -77.945 	 
S 	 -36.1309 	 -43.9136 	 -78.6616 	 
C 	 -34.6039 	 -44.3921 	 -79.4628 	 
C 	 -34.3329 	 -43.3879 	 -80.3405 	 
C 	 -35.291 	 -42.3688 	 -80.5247 	 
C 	 -36.394 	 -42.5025 	 -79.6647 	 
H 	 -33.4107 	 -43.4141 	 -80.9494 	 
C 	 -35.0679 	 -41.2253 	 -81.4983 	 
H 	 -33.9971 	 -41.0856 	 -81.482 	 
H 	 -35.6523 	 -40.3444 	 -81.1466 	 
C 	 -35.5872 	 -41.7291 	 -82.8174 	 
H 	 -36.717 	 -41.7019 	 -82.9045 	 
H 	 -35.2852 	 -42.6876 	 -83.0314 	 
C 	 -34.9391 	 -40.7828 	 -83.9001 	 
H 	 -35.2989 	 -40.9884 	 -84.8817 	 
H 	 -33.9133 	 -41.0495 	 -84.1361 	 
H 	 -35.1033 	 -39.6901 	 -83.8874 	 
H 	 -40.4765 	 -40.3522 	 -77.7789 	 
H 	 -34.0167 	 -45.2833 	 -79.2401 	 
