34

S 	 -104.49 	 -1.83381 	 -105.325 	 
C 	 -104.444 	 -0.704241 	 -106.672 	 
C 	 -104.824 	 0.594988 	 -106.317 	 
C 	 -105.062 	 0.669752 	 -104.92 	 
C 	 -105.009 	 -0.5533 	 -104.283 	 
H 	 -105.249 	 1.51789 	 -104.315 	 
C 	 -104.663 	 1.83575 	 -107.231 	 
H 	 -105.187 	 2.54947 	 -106.577 	 
H 	 -105.082 	 1.75352 	 -108.192 	 
C 	 -103.168 	 2.28516 	 -107.413 	 
H 	 -102.77 	 2.3601 	 -106.427 	 
H 	 -102.578 	 1.5204 	 -107.938 	 
C 	 -103.024 	 3.59193 	 -108.084 	 
H 	 -102.081 	 4.04714 	 -107.877 	 
H 	 -103.191 	 3.39637 	 -109.14 	 
H 	 -103.8 	 4.26156 	 -107.797 	 
S 	 -106.366 	 -0.5613 	 -101.796 	 
C 	 -105.486 	 -1.0653 	 -100.391 	 
C 	 -104.134 	 -1.36042 	 -100.611 	 
C 	 -103.921 	 -1.2567 	 -102.02 	 
C 	 -104.954 	 -0.752925 	 -102.824 	 
H 	 -103.468 	 -1.51609 	 -99.7489 	 
C 	 -102.535 	 -1.50261 	 -102.543 	 
H 	 -102.715 	 -2.20343 	 -103.396 	 
H 	 -102.009 	 -2.10143 	 -101.751 	 
C 	 -101.715 	 -0.327131 	 -102.95 	 
H 	 -102.417 	 0.429841 	 -103.456 	 
H 	 -100.929 	 -0.541594 	 -103.596 	 
C 	 -101.3 	 0.527877 	 -101.758 	 
H 	 -102.044 	 1.07164 	 -101.142 	 
H 	 -100.543 	 1.28841 	 -101.999 	 
H 	 -100.993 	 -0.259594 	 -101.014 	 
H 	 -104.155 	 -0.871882 	 -107.649 	 
H 	 -105.997 	 -1.19916 	 -99.4559 	 
