34

S 	 -108.986 	 14.3218 	 -124.549 	 
C 	 -109.653 	 13.1177 	 -123.487 	 
C 	 -110.782 	 13.645 	 -122.806 	 
C 	 -111.002 	 15.0323 	 -123.103 	 
C 	 -110.146 	 15.5616 	 -124.055 	 
H 	 -111.779 	 15.6439 	 -122.699 	 
C 	 -111.74 	 12.793 	 -121.947 	 
H 	 -112.415 	 13.4198 	 -121.418 	 
H 	 -111.181 	 12.2126 	 -121.276 	 
C 	 -112.69 	 11.8151 	 -122.734 	 
H 	 -112.121 	 11.119 	 -123.305 	 
H 	 -113.28 	 11.3715 	 -121.919 	 
C 	 -113.644 	 12.4878 	 -123.679 	 
H 	 -114.527 	 12.9725 	 -123.238 	 
H 	 -113.169 	 13.0891 	 -124.416 	 
H 	 -114.126 	 11.7097 	 -124.242 	 
S 	 -108.681 	 17.8543 	 -124.092 	 
C 	 -109.183 	 19.2802 	 -124.884 	 
C 	 -110.388 	 19.043 	 -125.566 	 
C 	 -110.905 	 17.7042 	 -125.382 	 
C 	 -110.073 	 16.9323 	 -124.614 	 
H 	 -110.833 	 19.7708 	 -126.246 	 
C 	 -112.108 	 17.2899 	 -126.124 	 
H 	 -112.089 	 16.1182 	 -126.276 	 
H 	 -112.234 	 17.6744 	 -127.125 	 
C 	 -113.438 	 17.2802 	 -125.32 	 
H 	 -113.641 	 18.3011 	 -124.824 	 
H 	 -113.197 	 16.647 	 -124.486 	 
C 	 -114.595 	 16.7051 	 -126.058 	 
H 	 -114.729 	 15.5908 	 -126.262 	 
H 	 -114.873 	 17.3322 	 -126.925 	 
H 	 -115.372 	 16.9801 	 -125.383 	 
H 	 -109.316 	 12.1525 	 -123.303 	 
H 	 -108.545 	 20.1128 	 -125.075 	 
