34

S 	 14.7768 	 -16.8571 	 -120.375 	 
C 	 13.1179 	 -16.9017 	 -120.895 	 
C 	 12.2151 	 -16.2442 	 -120.097 	 
C 	 12.8757 	 -15.7584 	 -118.897 	 
C 	 14.22 	 -16.1267 	 -118.855 	 
H 	 12.4463 	 -15.2231 	 -118.072 	 
C 	 10.7296 	 -16.3067 	 -120.323 	 
H 	 10.3584 	 -17.3173 	 -120.166 	 
H 	 10.5537 	 -16.1452 	 -121.409 	 
C 	 9.89127 	 -15.2588 	 -119.632 	 
H 	 10.1472 	 -15.3021 	 -118.592 	 
H 	 10.1533 	 -14.2514 	 -119.976 	 
C 	 8.40464 	 -15.5601 	 -119.867 	 
H 	 8.1487 	 -15.3452 	 -120.921 	 
H 	 8.19066 	 -16.6034 	 -119.743 	 
H 	 7.73955 	 -15.0308 	 -119.214 	 
S 	 15.8375 	 -14.1909 	 -117.642 	 
C 	 16.7063 	 -14.6765 	 -116.177 	 
C 	 16.6277 	 -16.0522 	 -115.955 	 
C 	 15.6961 	 -16.6748 	 -116.838 	 
C 	 15.1716 	 -15.8138 	 -117.753 	 
H 	 17.3392 	 -16.4601 	 -115.203 	 
C 	 15.4 	 -18.1331 	 -116.701 	 
H 	 14.3375 	 -18.2705 	 -117.053 	 
H 	 15.4456 	 -18.4512 	 -115.619 	 
C 	 16.3283 	 -19.1085 	 -117.397 	 
H 	 17.3827 	 -18.9716 	 -117 	 
H 	 16.2933 	 -18.7487 	 -118.448 	 
C 	 15.8156 	 -20.5781 	 -117.264 	 
H 	 16.2679 	 -21.2228 	 -117.995 	 
H 	 14.7009 	 -20.7391 	 -117.495 	 
H 	 15.9955 	 -20.9655 	 -116.27 	 
H 	 12.8167 	 -17.4692 	 -121.759 	 
H 	 17.3825 	 -14.0108 	 -115.67 	 
