34

S 	 -123.893 	 65.1128 	 -52.322 	 
C 	 -122.921 	 65.5256 	 -53.69 	 
C 	 -121.621 	 65.8111 	 -53.3274 	 
C 	 -121.405 	 65.6991 	 -51.9512 	 
C 	 -122.473 	 65.2597 	 -51.2172 	 
H 	 -120.463 	 65.8373 	 -51.3986 	 
C 	 -120.481 	 66.2675 	 -54.2243 	 
H 	 -120.542 	 65.7773 	 -55.1757 	 
H 	 -119.535 	 65.9059 	 -53.8146 	 
C 	 -120.271 	 67.7795 	 -54.4449 	 
H 	 -119.644 	 67.8785 	 -55.3046 	 
H 	 -121.168 	 68.2707 	 -54.8022 	 
C 	 -119.581 	 68.507 	 -53.2916 	 
H 	 -119.462 	 69.5566 	 -53.4596 	 
H 	 -120.112 	 68.3706 	 -52.3243 	 
H 	 -118.532 	 68.1261 	 -53.161 	 
S 	 -123.857 	 65.7782 	 -48.9936 	 
C 	 -123.438 	 65.0125 	 -47.4911 	 
C 	 -122.446 	 64.1117 	 -47.6049 	 
C 	 -121.878 	 64.041 	 -48.9335 	 
C 	 -122.547 	 64.9303 	 -49.8019 	 
H 	 -122.089 	 63.4474 	 -46.8144 	 
C 	 -120.847 	 63.0222 	 -49.2392 	 
H 	 -120.258 	 62.8615 	 -48.3288 	 
H 	 -120.145 	 63.6169 	 -49.789 	 
C 	 -121.248 	 61.7368 	 -50.1153 	 
H 	 -120.363 	 61.3793 	 -50.7326 	 
H 	 -122.025 	 62.0553 	 -50.8065 	 
C 	 -121.801 	 60.7049 	 -49.1972 	 
H 	 -122.919 	 60.9454 	 -49.0272 	 
H 	 -121.208 	 60.594 	 -48.3041 	 
H 	 -121.664 	 59.7263 	 -49.6535 	 
H 	 -123.355 	 65.5929 	 -54.6929 	 
H 	 -123.827 	 65.4042 	 -46.5626 	 
