34

S 	 -102.799 	 -2.90015 	 -101.281 	 
C 	 -103.784 	 -3.36003 	 -102.647 	 
C 	 -105.056 	 -2.89327 	 -102.628 	 
C 	 -105.269 	 -2.14919 	 -101.438 	 
C 	 -104.174 	 -2.11808 	 -100.59 	 
H 	 -106.12 	 -1.52273 	 -101.275 	 
C 	 -106.037 	 -2.94431 	 -103.86 	 
H 	 -106.263 	 -3.96003 	 -104.079 	 
H 	 -105.659 	 -2.46242 	 -104.738 	 
C 	 -107.378 	 -2.25265 	 -103.746 	 
H 	 -107.801 	 -2.54329 	 -102.8 	 
H 	 -107.184 	 -1.21093 	 -103.872 	 
C 	 -108.445 	 -2.53049 	 -104.792 	 
H 	 -109.375 	 -2.08945 	 -104.404 	 
H 	 -108.203 	 -2.00987 	 -105.722 	 
H 	 -108.597 	 -3.58998 	 -105.113 	 
S 	 -104 	 -2.32815 	 -97.81 	 
C 	 -103.653 	 -0.842035 	 -96.9065 	 
C 	 -103.698 	 0.229001 	 -97.7214 	 
C 	 -103.915 	 -0.0623493 	 -99.1185 	 
C 	 -104.099 	 -1.39334 	 -99.315 	 
H 	 -103.524 	 1.24234 	 -97.4071 	 
C 	 -103.886 	 0.994776 	 -100.233 	 
H 	 -103.829 	 0.611236 	 -101.17 	 
H 	 -103.044 	 1.64524 	 -99.9807 	 
C 	 -105.145 	 1.79896 	 -100.326 	 
H 	 -105.291 	 2.31556 	 -99.3963 	 
H 	 -106.066 	 1.21219 	 -100.439 	 
C 	 -105.177 	 2.8236 	 -101.5 	 
H 	 -105.995 	 3.58227 	 -101.509 	 
H 	 -105.124 	 2.23805 	 -102.425 	 
H 	 -104.25 	 3.32331 	 -101.446 	 
H 	 -103.51 	 -3.86331 	 -103.547 	 
H 	 -103.44 	 -0.695988 	 -95.8858 	 
