34

S 	 -105.456 	 49.2275 	 -98.3959 	 
C 	 -105.097 	 50.8038 	 -97.9355 	 
C 	 -105.615 	 51.1604 	 -96.7237 	 
C 	 -106.431 	 50.1292 	 -96.1703 	 
C 	 -106.581 	 49.048 	 -97.0126 	 
H 	 -106.856 	 50.2096 	 -95.1738 	 
C 	 -105.379 	 52.5534 	 -96.0911 	 
H 	 -106.279 	 52.9566 	 -96.088 	 
H 	 -104.862 	 53.1693 	 -96.8295 	 
C 	 -104.696 	 52.3888 	 -94.7052 	 
H 	 -104.461 	 53.2484 	 -94.047 	 
H 	 -105.38 	 51.87 	 -93.997 	 
C 	 -103.384 	 51.5922 	 -94.8376 	 
H 	 -103.031 	 51.3159 	 -93.8028 	 
H 	 -103.525 	 50.6302 	 -95.3321 	 
H 	 -102.547 	 52.1188 	 -95.3792 	 
S 	 -106.27 	 46.2762 	 -96.6855 	 
C 	 -107.657 	 45.3133 	 -96.4337 	 
C 	 -108.76 	 46.0944 	 -96.1814 	 
C 	 -108.514 	 47.4812 	 -96.2109 	 
C 	 -107.197 	 47.7744 	 -96.6339 	 
H 	 -109.692 	 45.6661 	 -95.9745 	 
C 	 -109.561 	 48.607 	 -96.09 	 
H 	 -109.247 	 49.4714 	 -96.6362 	 
H 	 -109.495 	 48.883 	 -95.0697 	 
C 	 -111.013 	 48.287 	 -96.3919 	 
H 	 -111.599 	 49.2406 	 -96.2688 	 
H 	 -111.608 	 47.5897 	 -95.7606 	 
C 	 -111.175 	 47.8357 	 -97.9055 	 
H 	 -110.799 	 48.5293 	 -98.6233 	 
H 	 -112.264 	 47.786 	 -98.1512 	 
H 	 -110.708 	 46.8545 	 -98.0799 	 
H 	 -104.367 	 51.3384 	 -98.5043 	 
H 	 -107.76 	 44.2008 	 -96.4769 	 
