34

S 	 -107.572 	 34.6861 	 -16.8645 	 
C 	 -107.949 	 33.4792 	 -15.6646 	 
C 	 -107.874 	 32.2282 	 -16.2448 	 
C 	 -107.512 	 32.1907 	 -17.638 	 
C 	 -107.253 	 33.4485 	 -18.1473 	 
H 	 -107.551 	 31.337 	 -18.3101 	 
C 	 -108.135 	 30.8505 	 -15.5459 	 
H 	 -107.76 	 30.8775 	 -14.4788 	 
H 	 -107.558 	 30.1872 	 -16.0853 	 
C 	 -109.574 	 30.4918 	 -15.5187 	 
H 	 -110.135 	 31.1556 	 -14.8431 	 
H 	 -109.935 	 30.5692 	 -16.598 	 
C 	 -109.815 	 29.0978 	 -14.9217 	 
H 	 -110.901 	 28.8375 	 -14.6091 	 
H 	 -109.512 	 28.3438 	 -15.695 	 
H 	 -109.244 	 28.9681 	 -14.031 	 
S 	 -105.461 	 34.7489 	 -19.8424 	 
C 	 -105.66 	 34.5233 	 -21.5395 	 
C 	 -106.811 	 33.8797 	 -21.8611 	 
C 	 -107.493 	 33.3814 	 -20.7463 	 
C 	 -106.884 	 33.7448 	 -19.553 	 
H 	 -107.143 	 33.8629 	 -22.8833 	 
C 	 -108.747 	 32.6135 	 -21.0149 	 
H 	 -109.261 	 33.0412 	 -21.8281 	 
H 	 -109.4 	 32.7894 	 -20.0876 	 
C 	 -108.493 	 31.1784 	 -21.3143 	 
H 	 -108.16 	 30.6782 	 -20.4265 	 
H 	 -107.72 	 31.1708 	 -22.099 	 
C 	 -109.706 	 30.4545 	 -21.786 	 
H 	 -109.438 	 29.4196 	 -21.7931 	 
H 	 -110.084 	 30.5536 	 -22.8454 	 
H 	 -110.486 	 30.6438 	 -21.0769 	 
H 	 -108.087 	 33.6994 	 -14.6522 	 
H 	 -104.963 	 35.0053 	 -22.2569 	 
