34

S 	 -54.2293 	 7.33424 	 -17.9274 	 
C 	 -53.0147 	 6.08388 	 -18.2391 	 
C 	 -51.7683 	 6.65363 	 -18.4709 	 
C 	 -51.8378 	 8.11459 	 -18.4204 	 
C 	 -53.0769 	 8.64189 	 -18.196 	 
H 	 -50.9901 	 8.79901 	 -18.4509 	 
C 	 -50.4351 	 5.95198 	 -18.7856 	 
H 	 -49.9601 	 5.64205 	 -17.9045 	 
H 	 -49.8297 	 6.70511 	 -19.2951 	 
C 	 -50.5808 	 4.74106 	 -19.7922 	 
H 	 -51.4568 	 4.136 	 -19.7118 	 
H 	 -50.7827 	 5.06429 	 -20.8181 	 
C 	 -49.3112 	 3.86848 	 -19.8296 	 
H 	 -48.3878 	 4.42459 	 -20.0402 	 
H 	 -49.0776 	 3.39966 	 -18.8654 	 
H 	 -49.3698 	 3.03261 	 -20.5455 	 
S 	 -54.0408 	 10.5435 	 -19.9456 	 
C 	 -54.4764 	 12.0991 	 -19.3287 	 
C 	 -54.0824 	 12.2726 	 -17.9999 	 
C 	 -53.5422 	 11.0452 	 -17.4633 	 
C 	 -53.4723 	 10.0552 	 -18.4136 	 
H 	 -54.1898 	 13.2789 	 -17.4899 	 
C 	 -53.2045 	 10.8698 	 -15.987 	 
H 	 -52.5804 	 11.6503 	 -15.745 	 
H 	 -52.4745 	 10.0562 	 -15.9354 	 
C 	 -54.3867 	 10.7115 	 -15.112 	 
H 	 -54.82 	 9.72692 	 -15.3352 	 
H 	 -55.1831 	 11.4532 	 -15.3827 	 
C 	 -54.1649 	 10.7769 	 -13.6345 	 
H 	 -54.914 	 10.2168 	 -13.1305 	 
H 	 -54.1604 	 11.7994 	 -13.153 	 
H 	 -53.1885 	 10.3328 	 -13.5122 	 
H 	 -53.289 	 5.00779 	 -18.2694 	 
H 	 -54.7043 	 12.9491 	 -19.9461 	 
