34

S 	 -48.7084 	 18.3678 	 -90.6022 	 
C 	 -48.4378 	 19.7206 	 -89.4983 	 
C 	 -49.6112 	 20.0542 	 -88.7901 	 
C 	 -50.6964 	 19.1725 	 -89.2071 	 
C 	 -50.356 	 18.1506 	 -90.0785 	 
H 	 -51.7317 	 19.2417 	 -88.9242 	 
C 	 -49.7731 	 21.1655 	 -87.8288 	 
H 	 -48.8651 	 21.3737 	 -87.2648 	 
H 	 -50.3929 	 20.8054 	 -87.0501 	 
C 	 -50.4658 	 22.4668 	 -88.3248 	 
H 	 -51.4067 	 22.2374 	 -88.8518 	 
H 	 -50.7519 	 23.018 	 -87.4772 	 
C 	 -49.4692 	 23.2476 	 -89.1331 	 
H 	 -48.4839 	 23.2155 	 -88.7037 	 
H 	 -49.3608 	 22.8576 	 -90.1228 	 
H 	 -49.7354 	 24.3117 	 -89.2674 	 
S 	 -52.4104 	 16.3776 	 -90.0312 	 
C 	 -53.127 	 15.703 	 -91.4729 	 
C 	 -52.2843 	 15.9835 	 -92.5172 	 
C 	 -51.2441 	 16.8921 	 -92.2296 	 
C 	 -51.1781 	 17.1996 	 -90.8708 	 
H 	 -52.4357 	 15.3685 	 -93.3935 	 
C 	 -50.397 	 17.4592 	 -93.4179 	 
H 	 -50.1238 	 18.5094 	 -93.2921 	 
H 	 -50.948 	 17.4179 	 -94.3766 	 
C 	 -49.0394 	 16.7099 	 -93.5517 	 
H 	 -49.2331 	 15.6254 	 -93.7757 	 
H 	 -48.4672 	 16.6821 	 -92.5817 	 
C 	 -48.1513 	 17.1754 	 -94.6825 	 
H 	 -47.4047 	 16.3163 	 -94.7357 	 
H 	 -47.6196 	 18.1467 	 -94.6198 	 
H 	 -48.8135 	 17.2922 	 -95.5209 	 
H 	 -47.4537 	 20.2115 	 -89.4185 	 
H 	 -53.8691 	 15.0067 	 -91.5291 	 
