34

S 	 -39.796 	 -12.5585 	 12.3954 	 
C 	 -41.0966 	 -12.5567 	 13.5498 	 
C 	 -40.7004 	 -12.3576 	 14.8779 	 
C 	 -39.374 	 -12.8506 	 15.002 	 
C 	 -38.7275 	 -13.095 	 13.7572 	 
H 	 -38.8404 	 -13.0753 	 15.9383 	 
C 	 -41.6257 	 -12.0129 	 16.0243 	 
H 	 -41.1667 	 -12.5712 	 16.7551 	 
H 	 -42.5574 	 -12.4962 	 15.9135 	 
C 	 -41.8379 	 -10.4574 	 16.3089 	 
H 	 -42.7264 	 -10.241 	 16.8528 	 
H 	 -41.0083 	 -9.9095 	 16.7582 	 
C 	 -42.1876 	 -9.75491 	 14.9924 	 
H 	 -43.0342 	 -10.1636 	 14.4794 	 
H 	 -42.4436 	 -8.70656 	 15.0997 	 
H 	 -41.3737 	 -9.75506 	 14.2597 	 
S 	 -37.1526 	 -15.3012 	 14.069 	 
C 	 -35.5771 	 -15.4235 	 13.3831 	 
C 	 -35.1679 	 -14.1504 	 12.9981 	 
C 	 -36.1972 	 -13.0877 	 13.0691 	 
C 	 -37.3885 	 -13.6298 	 13.5609 	 
H 	 -34.126 	 -14.0594 	 12.6598 	 
C 	 -35.9267 	 -11.6788 	 12.6425 	 
H 	 -36.7729 	 -11.285 	 12.1828 	 
H 	 -35.1549 	 -11.702 	 11.8841 	 
C 	 -35.4513 	 -10.6872 	 13.7055 	 
H 	 -35.4106 	 -9.6647 	 13.3628 	 
H 	 -34.4479 	 -10.9067 	 14.1281 	 
C 	 -36.4156 	 -10.7399 	 14.8617 	 
H 	 -37.4157 	 -10.8904 	 14.4036 	 
H 	 -36.4351 	 -9.81452 	 15.3338 	 
H 	 -36.099 	 -11.6272 	 15.4554 	 
H 	 -42.0136 	 -12.2242 	 13.2009 	 
H 	 -34.9941 	 -16.2365 	 13.3368 	 
