34

S 	 -56.6784 	 8.92325 	 -86.8377 	 
C 	 -57.3809 	 9.5469 	 -88.2835 	 
C 	 -58.6495 	 10.0176 	 -88.1229 	 
C 	 -59.1522 	 9.65501 	 -86.8151 	 
C 	 -58.2247 	 9.07488 	 -86.0252 	 
H 	 -60.0764 	 9.81717 	 -86.2932 	 
C 	 -59.4839 	 10.6973 	 -89.1873 	 
H 	 -60.5169 	 10.4956 	 -88.8289 	 
H 	 -59.3772 	 10.2176 	 -90.1851 	 
C 	 -59.3502 	 12.2003 	 -89.321 	 
H 	 -58.4557 	 12.5599 	 -89.8273 	 
H 	 -60.0164 	 12.5399 	 -90.0934 	 
C 	 -59.6175 	 12.9871 	 -88.0763 	 
H 	 -58.7099 	 12.9966 	 -87.4357 	 
H 	 -59.8339 	 14.035 	 -88.1866 	 
H 	 -60.4029 	 12.5273 	 -87.5719 	 
S 	 -57.3779 	 9.37567 	 -83.4344 	 
C 	 -58.3125 	 8.60482 	 -82.1715 	 
C 	 -59.3684 	 7.86755 	 -82.5775 	 
C 	 -59.486 	 7.93504 	 -84.068 	 
C 	 -58.4462 	 8.67123 	 -84.633 	 
H 	 -60.044 	 7.29835 	 -81.9434 	 
C 	 -60.6262 	 7.28808 	 -84.7894 	 
H 	 -60.7684 	 6.20391 	 -84.6096 	 
H 	 -60.3849 	 7.37981 	 -85.8457 	 
C 	 -62.008 	 8.06857 	 -84.8274 	 
H 	 -62.7943 	 7.49365 	 -85.3303 	 
H 	 -61.9913 	 8.96915 	 -85.4536 	 
C 	 -62.3839 	 8.53479 	 -83.4782 	 
H 	 -63.302 	 9.13978 	 -83.5254 	 
H 	 -61.672 	 9.19049 	 -83.0315 	 
H 	 -62.5028 	 7.69009 	 -82.7972 	 
H 	 -56.9071 	 9.51295 	 -89.2667 	 
H 	 -58.1385 	 8.7026 	 -81.1466 	 
