34

S 	 -50.6541 	 20.1868 	 -101.149 	 
C 	 -51.8125 	 19.0287 	 -100.625 	 
C 	 -52.8414 	 18.8548 	 -101.521 	 
C 	 -52.702 	 19.6584 	 -102.67 	 
C 	 -51.5033 	 20.4511 	 -102.669 	 
H 	 -53.4803 	 19.703 	 -103.437 	 
C 	 -54.0158 	 17.9547 	 -101.282 	 
H 	 -53.8567 	 17.3651 	 -100.382 	 
H 	 -53.969 	 17.0824 	 -101.962 	 
C 	 -55.4392 	 18.5146 	 -101.085 	 
H 	 -55.9982 	 18.74 	 -102.038 	 
H 	 -56.0706 	 17.7507 	 -100.55 	 
C 	 -55.5895 	 19.7577 	 -100.197 	 
H 	 -55.0732 	 19.4923 	 -99.2322 	 
H 	 -55.0918 	 20.607 	 -100.665 	 
H 	 -56.576 	 19.9957 	 -100.071 	 
S 	 -50.8037 	 23.0737 	 -103.253 	 
C 	 -50.5913 	 23.5575 	 -104.921 	 
C 	 -50.8641 	 22.5218 	 -105.75 	 
C 	 -51.0016 	 21.2655 	 -105.07 	 
C 	 -51.1528 	 21.4068 	 -103.693 	 
H 	 -50.9302 	 22.6577 	 -106.78 	 
C 	 -51.0752 	 19.9086 	 -105.812 	 
H 	 -51.2878 	 19.0774 	 -105.126 	 
H 	 -50.1698 	 19.6932 	 -106.359 	 
C 	 -52.2172 	 19.8937 	 -106.819 	 
H 	 -52.1437 	 18.9637 	 -107.264 	 
H 	 -52.1584 	 20.6121 	 -107.638 	 
C 	 -53.6411 	 19.8767 	 -106.112 	 
H 	 -53.6785 	 20.7476 	 -105.477 	 
H 	 -53.8611 	 18.9422 	 -105.51 	 
H 	 -54.3813 	 20.0365 	 -106.845 	 
H 	 -51.4955 	 18.5042 	 -99.7831 	 
H 	 -50.6644 	 24.5196 	 -105.276 	 
