34

S 	 -127.847 	 28.9623 	 -21.4906 	 
C 	 -129.293 	 29.3997 	 -20.6246 	 
C 	 -129.754 	 28.3079 	 -19.8185 	 
C 	 -129.098 	 27.1092 	 -20.1393 	 
C 	 -128.148 	 27.2262 	 -21.1377 	 
H 	 -129.274 	 26.1441 	 -19.5594 	 
C 	 -130.855 	 28.4155 	 -18.7578 	 
H 	 -131.186 	 27.4497 	 -18.551 	 
H 	 -131.794 	 28.7633 	 -19.3089 	 
C 	 -130.659 	 29.3687 	 -17.5933 	 
H 	 -130.397 	 30.3888 	 -18.0002 	 
H 	 -131.593 	 29.3378 	 -17.0438 	 
C 	 -129.507 	 28.7902 	 -16.676 	 
H 	 -129.555 	 29.1778 	 -15.5957 	 
H 	 -129.702 	 27.7292 	 -16.5689 	 
H 	 -128.502 	 29.0186 	 -17.1553 	 
S 	 -125.998 	 26.7347 	 -22.7611 	 
C 	 -125.397 	 25.1834 	 -23.0405 	 
C 	 -126.389 	 24.2951 	 -22.679 	 
C 	 -127.521 	 24.8723 	 -22.0277 	 
C 	 -127.344 	 26.1871 	 -21.7647 	 
H 	 -126.143 	 23.2108 	 -22.793 	 
C 	 -128.714 	 24.0385 	 -21.4636 	 
H 	 -128.889 	 23.2017 	 -22.1669 	 
H 	 -129.549 	 24.6908 	 -21.5825 	 
C 	 -128.49 	 23.5251 	 -20.0296 	 
H 	 -128.066 	 24.3126 	 -19.3746 	 
H 	 -127.857 	 22.6564 	 -20.0039 	 
C 	 -129.814 	 22.9029 	 -19.4626 	 
H 	 -130.348 	 22.2437 	 -20.145 	 
H 	 -130.519 	 23.6814 	 -19.1621 	 
H 	 -129.494 	 22.4327 	 -18.5644 	 
H 	 -129.592 	 30.4599 	 -20.4856 	 
H 	 -124.557 	 24.9285 	 -23.6747 	 
