34

S 	 -53.8889 	 10.5931 	 -98.0799 	 
C 	 -52.1618 	 10.6696 	 -98.067 	 
C 	 -51.6952 	 11.986 	 -98.1558 	 
C 	 -52.7598 	 12.8142 	 -98.5609 	 
C 	 -54.0034 	 12.3112 	 -98.4857 	 
H 	 -52.4907 	 13.7536 	 -99.0148 	 
C 	 -50.2415 	 12.4809 	 -98.0625 	 
H 	 -50.2499 	 13.6374 	 -98.0033 	 
H 	 -49.5813 	 12.0693 	 -98.8308 	 
C 	 -49.5699 	 12.1084 	 -96.7499 	 
H 	 -49.7994 	 11.057 	 -96.5593 	 
H 	 -48.449 	 12.1821 	 -96.8292 	 
C 	 -49.8866 	 13.0073 	 -95.5782 	 
H 	 -50.8941 	 12.9635 	 -95.3196 	 
H 	 -49.2616 	 12.688 	 -94.7567 	 
H 	 -49.5601 	 14.0609 	 -95.7811 	 
S 	 -56.519 	 13.2865 	 -97.6015 	 
C 	 -57.5459 	 13.912 	 -98.8797 	 
C 	 -56.9231 	 14.0111 	 -100.1 	 
C 	 -55.64 	 13.3643 	 -100.067 	 
C 	 -55.2979 	 12.8241 	 -98.8072 	 
H 	 -57.4211 	 14.5274 	 -100.9 	 
C 	 -54.7408 	 13.3828 	 -101.238 	 
H 	 -54.1775 	 12.467 	 -101.213 	 
H 	 -53.9526 	 14.1975 	 -101.307 	 
C 	 -55.4427 	 13.5859 	 -102.578 	 
H 	 -55.8632 	 14.6293 	 -102.513 	 
H 	 -56.299 	 12.9218 	 -102.545 	 
C 	 -54.5753 	 13.1942 	 -103.821 	 
H 	 -54.0644 	 12.1927 	 -103.742 	 
H 	 -53.893 	 13.974 	 -103.887 	 
H 	 -55.1447 	 13.1627 	 -104.688 	 
H 	 -51.5814 	 9.77125 	 -97.9484 	 
H 	 -58.4892 	 14.3169 	 -98.6347 	 
