34

S 	 -1.33686 	 -26.7794 	 -107.849 	 
C 	 -0.0646925 	 -26.4523 	 -109.09 	 
C 	 -0.158496 	 -25.1205 	 -109.548 	 
C 	 -1.19951 	 -24.4183 	 -108.895 	 
C 	 -1.99219 	 -25.1485 	 -107.957 	 
H 	 -1.37781 	 -23.3097 	 -108.953 	 
C 	 0.727274 	 -24.3719 	 -110.538 	 
H 	 0.695469 	 -24.8002 	 -111.539 	 
H 	 1.80654 	 -24.5336 	 -110.325 	 
C 	 0.396651 	 -22.8199 	 -110.742 	 
H 	 -0.629924 	 -22.49 	 -110.861 	 
H 	 0.755636 	 -22.35 	 -109.771 	 
C 	 1.17538 	 -22.1942 	 -111.882 	 
H 	 1.13743 	 -21.1091 	 -111.865 	 
H 	 2.2112 	 -22.5344 	 -111.728 	 
H 	 0.728717 	 -22.6266 	 -112.727 	 
S 	 -2.22323 	 -23.2569 	 -106.002 	 
C 	 -3.4734 	 -23.5564 	 -104.788 	 
C 	 -4.4487 	 -24.415 	 -105.2 	 
C 	 -4.14814 	 -24.9922 	 -106.481 	 
C 	 -2.88438 	 -24.5973 	 -106.992 	 
H 	 -5.40647 	 -24.538 	 -104.691 	 
C 	 -5.14067 	 -25.8681 	 -107.184 	 
H 	 -5.04373 	 -25.5112 	 -108.257 	 
H 	 -6.15356 	 -25.5868 	 -106.819 	 
C 	 -4.81132 	 -27.3155 	 -106.892 	 
H 	 -3.7978 	 -27.539 	 -107.053 	 
H 	 -5.35468 	 -27.9347 	 -107.615 	 
C 	 -5.17277 	 -27.7747 	 -105.501 	 
H 	 -6.26219 	 -27.6976 	 -105.358 	 
H 	 -4.67485 	 -27.221 	 -104.645 	 
H 	 -5.0089 	 -28.8526 	 -105.615 	 
H 	 0.730406 	 -27.1435 	 -109.328 	 
H 	 -3.54627 	 -23.0914 	 -103.787 	 
