34

S 	 -65.0432 	 16.7635 	 -109.913 	 
C 	 -66.7259 	 16.3699 	 -110.114 	 
C 	 -67.0468 	 16.253 	 -111.433 	 
C 	 -65.9788 	 16.5732 	 -112.314 	 
C 	 -64.801 	 16.8591 	 -111.69 	 
H 	 -66.0073 	 16.4996 	 -113.425 	 
C 	 -68.4616 	 15.846 	 -111.92 	 
H 	 -68.7785 	 16.6828 	 -112.49 	 
H 	 -69.2005 	 15.7398 	 -111.12 	 
C 	 -68.5953 	 14.6376 	 -112.798 	 
H 	 -68.0709 	 14.8432 	 -113.761 	 
H 	 -68.0134 	 13.8596 	 -112.297 	 
C 	 -69.9841 	 14.0653 	 -113.134 	 
H 	 -70.6816 	 13.8982 	 -112.3 	 
H 	 -70.5329 	 14.7086 	 -113.867 	 
H 	 -69.9121 	 13.1111 	 -113.663 	 
S 	 -62.6128 	 16.2549 	 -113.301 	 
C 	 -61.6969 	 17.6272 	 -114.059 	 
C 	 -62.0527 	 18.8139 	 -113.392 	 
C 	 -63.2028 	 18.6829 	 -112.533 	 
C 	 -63.6297 	 17.3923 	 -112.365 	 
H 	 -61.5614 	 19.7118 	 -113.736 	 
C 	 -63.8774 	 19.9626 	 -111.901 	 
H 	 -64.1331 	 19.7648 	 -110.84 	 
H 	 -64.8174 	 20.0063 	 -112.378 	 
C 	 -63.1354 	 21.3759 	 -112.075 	 
H 	 -62.6903 	 21.4472 	 -113.038 	 
H 	 -62.2937 	 21.1997 	 -111.478 	 
C 	 -64.0236 	 22.6028 	 -111.717 	 
H 	 -63.3137 	 23.435 	 -111.572 	 
H 	 -64.678 	 22.5037 	 -110.811 	 
H 	 -64.7006 	 22.8783 	 -112.513 	 
H 	 -67.4821 	 16.3716 	 -109.366 	 
H 	 -60.886 	 17.5591 	 -114.68 	 
