34

S 	 -55.7381 	 8.16243 	 -31.5386 	 
C 	 -56.5655 	 6.61639 	 -31.5557 	 
C 	 -55.8766 	 5.58974 	 -32.2467 	 
C 	 -54.7317 	 6.15839 	 -32.9256 	 
C 	 -54.4812 	 7.50354 	 -32.5827 	 
H 	 -54.1372 	 5.53447 	 -33.5281 	 
C 	 -56.2831 	 4.22171 	 -32.5583 	 
H 	 -56.9126 	 3.68404 	 -31.8478 	 
H 	 -55.4093 	 3.55282 	 -32.7244 	 
C 	 -57.1315 	 4.09393 	 -33.8375 	 
H 	 -58.0143 	 4.69428 	 -33.8229 	 
H 	 -56.558 	 4.48013 	 -34.6884 	 
C 	 -57.4365 	 2.62901 	 -34.1687 	 
H 	 -58.2769 	 2.31564 	 -33.5565 	 
H 	 -57.6791 	 2.64105 	 -35.2039 	 
H 	 -56.5807 	 2.00743 	 -34.0693 	 
S 	 -53.7186 	 9.7285 	 -34.1424 	 
C 	 -52.1146 	 10.1415 	 -34.2517 	 
C 	 -51.3093 	 9.30825 	 -33.5405 	 
C 	 -51.9982 	 8.28285 	 -32.8115 	 
C 	 -53.3468 	 8.30737 	 -33.0921 	 
H 	 -50.2168 	 9.37445 	 -33.5462 	 
C 	 -51.3889 	 7.26943 	 -31.8457 	 
H 	 -50.3282 	 7.32379 	 -31.7676 	 
H 	 -51.622 	 6.29704 	 -32.3723 	 
C 	 -51.9835 	 7.23591 	 -30.3906 	 
H 	 -53.055 	 7.49935 	 -30.3408 	 
H 	 -51.4767 	 8.12762 	 -29.8997 	 
C 	 -51.6372 	 5.92215 	 -29.6589 	 
H 	 -50.5884 	 5.61615 	 -29.7367 	 
H 	 -52.2288 	 5.07458 	 -30.0037 	 
H 	 -51.996 	 5.96862 	 -28.5893 	 
H 	 -57.5357 	 6.41822 	 -31.1221 	 
H 	 -51.7154 	 10.8541 	 -34.9352 	 
