34

S 	 -104.268 	 59.3899 	 -100.85 	 
C 	 -103.551 	 59.5638 	 -99.1584 	 
C 	 -104.53 	 59.959 	 -98.2635 	 
C 	 -105.79 	 60.2288 	 -98.9224 	 
C 	 -105.784 	 60.0425 	 -100.292 	 
H 	 -106.771 	 60.6214 	 -98.5221 	 
C 	 -104.351 	 60.0832 	 -96.7138 	 
H 	 -105.234 	 60.6112 	 -96.3734 	 
H 	 -103.414 	 60.6718 	 -96.5711 	 
C 	 -104.111 	 58.6987 	 -95.9927 	 
H 	 -104.851 	 57.953 	 -96.3696 	 
H 	 -103.166 	 58.3438 	 -96.2466 	 
C 	 -104.22 	 58.8101 	 -94.4513 	 
H 	 -103.465 	 59.3917 	 -94.0367 	 
H 	 -105.057 	 59.3601 	 -94.1801 	 
H 	 -104.359 	 57.8963 	 -93.9563 	 
S 	 -108.113 	 58.9853 	 -101.367 	 
C 	 -108.875 	 59.8466 	 -102.664 	 
C 	 -108.243 	 61.0679 	 -102.93 	 
C 	 -107.093 	 61.2424 	 -102.155 	 
C 	 -106.903 	 60.262 	 -101.201 	 
H 	 -108.53 	 61.5011 	 -103.89 	 
C 	 -106.273 	 62.3997 	 -102.434 	 
H 	 -106.007 	 62.8137 	 -101.452 	 
H 	 -106.828 	 63.0937 	 -102.954 	 
C 	 -105.011 	 62.1076 	 -103.331 	 
H 	 -105.228 	 61.9851 	 -104.373 	 
H 	 -104.45 	 61.2207 	 -103.084 	 
C 	 -103.978 	 63.276 	 -103.411 	 
H 	 -103.025 	 62.8473 	 -103.806 	 
H 	 -103.783 	 63.7713 	 -102.407 	 
H 	 -104.279 	 64.0871 	 -104.131 	 
H 	 -102.552 	 59.2246 	 -98.8408 	 
H 	 -109.763 	 59.5721 	 -103.212 	 
