34

S 	 42.4269 	 -15.1771 	 -119.621 	 
C 	 41.1794 	 -14.0105 	 -119.178 	 
C 	 40.3134 	 -13.714 	 -120.245 	 
C 	 40.4998 	 -14.6072 	 -121.344 	 
C 	 41.5968 	 -15.4258 	 -121.167 	 
H 	 40.0535 	 -14.4831 	 -122.324 	 
C 	 39.2557 	 -12.5805 	 -120.299 	 
H 	 39.2127 	 -12.056 	 -119.391 	 
H 	 38.3607 	 -13.0985 	 -120.467 	 
C 	 39.3367 	 -11.6336 	 -121.459 	 
H 	 38.9863 	 -12.1035 	 -122.393 	 
H 	 38.5262 	 -10.9311 	 -121.22 	 
C 	 40.665 	 -10.9366 	 -121.598 	 
H 	 41.0084 	 -10.5496 	 -120.617 	 
H 	 41.5679 	 -11.4758 	 -121.987 	 
H 	 40.5041 	 -10.0333 	 -122.222 	 
S 	 42.0289 	 -18.0302 	 -122.092 	 
C 	 42.6738 	 -18.2566 	 -123.664 	 
C 	 42.767 	 -17.0682 	 -124.341 	 
C 	 42.4198 	 -15.9618 	 -123.52 	 
C 	 42.0576 	 -16.2712 	 -122.28 	 
H 	 43.0927 	 -17.0236 	 -125.398 	 
C 	 42.2883 	 -14.6358 	 -124.206 	 
H 	 43.2702 	 -14.3586 	 -124.661 	 
H 	 42.1222 	 -13.9263 	 -123.34 	 
C 	 41.0575 	 -14.5765 	 -125.123 	 
H 	 40.1567 	 -14.8968 	 -124.637 	 
H 	 41.2121 	 -15.1911 	 -125.998 	 
C 	 40.7442 	 -13.1138 	 -125.396 	 
H 	 40.4398 	 -12.6654 	 -124.433 	 
H 	 39.9311 	 -12.8585 	 -126.134 	 
H 	 41.6288 	 -12.6873 	 -125.844 	 
H 	 41.2098 	 -13.4158 	 -118.265 	 
H 	 42.8381 	 -19.1782 	 -124.12 	 
