34

S 	 -49.1927 	 7.36648 	 -17.6221 	 
C 	 -48.7532 	 6.65419 	 -19.165 	 
C 	 -49.8594 	 6.11239 	 -19.7843 	 
C 	 -51.0593 	 6.17114 	 -19.0238 	 
C 	 -50.842 	 6.77134 	 -17.8173 	 
H 	 -52.018 	 5.8317 	 -19.3906 	 
C 	 -49.8618 	 5.6704 	 -21.1822 	 
H 	 -48.8359 	 5.51488 	 -21.4738 	 
H 	 -50.059 	 6.57647 	 -21.818 	 
C 	 -50.6338 	 4.46936 	 -21.5961 	 
H 	 -51.6531 	 4.79622 	 -21.8766 	 
H 	 -50.2177 	 4.17484 	 -22.5596 	 
C 	 -50.6123 	 3.3346 	 -20.6031 	 
H 	 -51.4119 	 3.57492 	 -19.9085 	 
H 	 -50.6728 	 2.28272 	 -20.9655 	 
H 	 -49.6771 	 3.21027 	 -20.1131 	 
S 	 -51.4185 	 8.5612 	 -15.7691 	 
C 	 -52.7193 	 8.20739 	 -14.6183 	 
C 	 -53.5141 	 7.27782 	 -15.1168 	 
C 	 -53.1202 	 6.74085 	 -16.4135 	 
C 	 -51.8393 	 7.11223 	 -16.7848 	 
H 	 -54.3382 	 6.85608 	 -14.5205 	 
C 	 -54.037 	 5.72908 	 -17.1017 	 
H 	 -53.9598 	 5.92143 	 -18.1553 	 
H 	 -55.1192 	 5.84947 	 -16.8284 	 
C 	 -53.6098 	 4.2915 	 -16.8094 	 
H 	 -52.5124 	 4.2648 	 -16.8021 	 
H 	 -53.9962 	 3.7155 	 -17.5949 	 
C 	 -54.1752 	 3.73905 	 -15.5166 	 
H 	 -53.7998 	 4.23714 	 -14.6037 	 
H 	 -54.1072 	 2.64659 	 -15.583 	 
H 	 -55.2875 	 3.75736 	 -15.5072 	 
H 	 -47.8068 	 6.9152 	 -19.5788 	 
H 	 -52.9089 	 8.72552 	 -13.7661 	 
