34

S 	 -107.68 	 47.3407 	 -99.1489 	 
C 	 -108.279 	 48.8648 	 -99.539 	 
C 	 -107.407 	 49.6303 	 -100.293 	 
C 	 -106.127 	 48.9709 	 -100.401 	 
C 	 -106.152 	 47.6933 	 -99.8657 	 
H 	 -105.233 	 49.3244 	 -100.916 	 
C 	 -107.645 	 51.0501 	 -100.77 	 
H 	 -108.649 	 51.1011 	 -101.239 	 
H 	 -107.046 	 51.0961 	 -101.711 	 
C 	 -107.253 	 52.1403 	 -99.8095 	 
H 	 -107.642 	 53.1201 	 -100.167 	 
H 	 -107.768 	 52.0965 	 -98.7872 	 
C 	 -105.773 	 52.2677 	 -99.6056 	 
H 	 -105.485 	 51.4035 	 -99.0084 	 
H 	 -105.22 	 52.402 	 -100.496 	 
H 	 -105.571 	 53.0657 	 -98.9173 	 
S 	 -105.362 	 45.2436 	 -100.854 	 
C 	 -103.778 	 44.6296 	 -100.402 	 
C 	 -103.095 	 45.5845 	 -99.6712 	 
C 	 -103.821 	 46.7783 	 -99.411 	 
C 	 -105.115 	 46.7314 	 -99.9062 	 
H 	 -102.078 	 45.3881 	 -99.4685 	 
C 	 -103.222 	 48.0071 	 -98.7698 	 
H 	 -103.064 	 48.744 	 -99.5573 	 
H 	 -102.216 	 47.821 	 -98.4969 	 
C 	 -104.035 	 48.5749 	 -97.5862 	 
H 	 -104.342 	 47.6366 	 -96.9431 	 
H 	 -104.979 	 48.9444 	 -98.0012 	 
C 	 -103.126 	 49.6145 	 -96.7665 	 
H 	 -102.275 	 49.0652 	 -96.3561 	 
H 	 -103.559 	 50.1374 	 -95.9655 	 
H 	 -102.8 	 50.3439 	 -97.5077 	 
H 	 -109.284 	 49.2227 	 -99.2391 	 
H 	 -103.199 	 43.8236 	 -101.005 	 
