34

S 	 -104.81 	 57.5227 	 -88.4155 	 
C 	 -103.097 	 57.7556 	 -88.234 	 
C 	 -102.309 	 56.9954 	 -89.0889 	 
C 	 -103.225 	 56.2166 	 -89.9153 	 
C 	 -104.542 	 56.4056 	 -89.743 	 
H 	 -102.783 	 55.5005 	 -90.6154 	 
C 	 -100.757 	 57.0169 	 -89.1432 	 
H 	 -100.424 	 56.0884 	 -89.5131 	 
H 	 -100.316 	 57.2684 	 -88.1531 	 
C 	 -100.149 	 57.9308 	 -90.1938 	 
H 	 -100.159 	 57.5065 	 -91.2167 	 
H 	 -100.815 	 58.7886 	 -90.2445 	 
C 	 -98.6544 	 58.4561 	 -89.8635 	 
H 	 -98.5909 	 58.9663 	 -88.8953 	 
H 	 -98.1098 	 57.5085 	 -89.5867 	 
H 	 -98.2353 	 58.9592 	 -90.7306 	 
S 	 -106.755 	 54.8416 	 -89.9225 	 
C 	 -107.671 	 54.8268 	 -91.4084 	 
C 	 -107.238 	 55.6655 	 -92.4206 	 
C 	 -105.983 	 56.339 	 -91.9609 	 
C 	 -105.638 	 55.9767 	 -90.5879 	 
H 	 -107.774 	 55.7467 	 -93.3314 	 
C 	 -105.366 	 57.343 	 -92.8076 	 
H 	 -104.982 	 58.1898 	 -92.2235 	 
H 	 -106.122 	 57.8487 	 -93.4486 	 
C 	 -104.131 	 56.8467 	 -93.5691 	 
H 	 -104.52 	 56.1021 	 -94.2823 	 
H 	 -103.456 	 56.2942 	 -92.88 	 
C 	 -103.406 	 57.9891 	 -94.2154 	 
H 	 -102.565 	 57.7201 	 -94.8114 	 
H 	 -102.94 	 58.6623 	 -93.4747 	 
H 	 -104.112 	 58.4312 	 -94.8983 	 
H 	 -102.712 	 58.5976 	 -87.7197 	 
H 	 -108.617 	 54.3357 	 -91.5389 	 
