34

S 	 -116.621 	 32.009 	 -20.8356 	 
C 	 -118.124 	 32.1081 	 -21.8124 	 
C 	 -119.065 	 32.8836 	 -21.1451 	 
C 	 -118.682 	 33.0733 	 -19.7632 	 
C 	 -117.453 	 32.562 	 -19.434 	 
H 	 -119.124 	 33.7475 	 -19.0359 	 
C 	 -120.379 	 33.3497 	 -21.7487 	 
H 	 -120.368 	 33.4122 	 -22.8372 	 
H 	 -120.516 	 34.4119 	 -21.4101 	 
C 	 -121.533 	 32.3931 	 -21.4523 	 
H 	 -121.641 	 32.1594 	 -20.4051 	 
H 	 -122.485 	 32.8583 	 -21.7091 	 
C 	 -121.438 	 31.0413 	 -22.1823 	 
H 	 -122.332 	 30.5479 	 -21.9596 	 
H 	 -121.181 	 31.1288 	 -23.2446 	 
H 	 -120.693 	 30.3215 	 -21.8061 	 
S 	 -116.32 	 31.3581 	 -17.2051 	 
C 	 -116.187 	 32.3354 	 -15.8319 	 
C 	 -115.831 	 33.6467 	 -16.2555 	 
C 	 -116.141 	 33.8569 	 -17.6169 	 
C 	 -116.697 	 32.7518 	 -18.2157 	 
H 	 -115.441 	 34.37 	 -15.4961 	 
C 	 -115.988 	 35.2464 	 -18.2684 	 
H 	 -115.932 	 35.9038 	 -17.3861 	 
H 	 -116.966 	 35.5072 	 -18.7411 	 
C 	 -114.795 	 35.5128 	 -19.2332 	 
H 	 -114.894 	 36.3767 	 -19.8509 	 
H 	 -114.781 	 34.7282 	 -19.9994 	 
C 	 -113.381 	 35.5834 	 -18.5156 	 
H 	 -113.253 	 34.7139 	 -17.849 	 
H 	 -113.334 	 36.5324 	 -17.9621 	 
H 	 -112.588 	 35.6899 	 -19.3311 	 
H 	 -118.356 	 31.9061 	 -22.8469 	 
H 	 -115.898 	 32.1368 	 -14.8352 	 
