34

S 	 45.7227 	 -20.9489 	 -111.631 	 
C 	 46.4249 	 -19.7566 	 -110.613 	 
C 	 46.0715 	 -19.87 	 -109.266 	 
C 	 45.2752 	 -21.0109 	 -109.062 	 
C 	 44.8807 	 -21.6852 	 -110.215 	 
H 	 44.9037 	 -21.3593 	 -108.095 	 
C 	 46.6154 	 -18.9073 	 -108.187 	 
H 	 45.8599 	 -18.7052 	 -107.434 	 
H 	 46.7923 	 -17.9401 	 -108.744 	 
C 	 47.9518 	 -19.312 	 -107.511 	 
H 	 48.8963 	 -19.4328 	 -108.158 	 
H 	 48.2789 	 -18.557 	 -106.822 	 
C 	 47.774 	 -20.6186 	 -106.736 	 
H 	 47.8729 	 -21.4002 	 -107.472 	 
H 	 48.6093 	 -20.8151 	 -106.032 	 
H 	 46.8218 	 -20.6786 	 -106.226 	 
S 	 42.1898 	 -22.3889 	 -110.44 	 
C 	 41.908 	 -24.0059 	 -110.929 	 
C 	 42.8721 	 -24.8784 	 -110.46 	 
C 	 44.0351 	 -24.0937 	 -110.223 	 
C 	 43.8966 	 -22.7623 	 -110.422 	 
H 	 42.6456 	 -25.912 	 -110.566 	 
C 	 45.2715 	 -24.7836 	 -109.763 	 
H 	 45.0742 	 -25.5245 	 -108.901 	 
H 	 45.9304 	 -24.012 	 -109.371 	 
C 	 46.322 	 -25.3674 	 -110.798 	 
H 	 45.9331 	 -26.3319 	 -111.129 	 
H 	 47.2439 	 -25.682 	 -110.219 	 
C 	 46.7659 	 -24.4512 	 -111.863 	 
H 	 45.9625 	 -23.7891 	 -112.188 	 
H 	 47.1826 	 -24.9508 	 -112.697 	 
H 	 47.4712 	 -23.7729 	 -111.407 	 
H 	 47.1307 	 -19.009 	 -110.852 	 
H 	 41.0099 	 -24.4237 	 -111.344 	 
