34

S 	 -16.8843 	 -26.2182 	 -97.4719 	 
C 	 -15.5617 	 -27.2201 	 -96.9476 	 
C 	 -15.9845 	 -28.5052 	 -96.6296 	 
C 	 -17.3837 	 -28.7157 	 -96.7516 	 
C 	 -18.0691 	 -27.5203 	 -97.0458 	 
H 	 -17.8228 	 -29.6787 	 -96.5375 	 
C 	 -15.0792 	 -29.6034 	 -96.2685 	 
H 	 -15.349 	 -29.9995 	 -95.2785 	 
H 	 -14.0073 	 -29.3219 	 -96.2328 	 
C 	 -14.9954 	 -30.7594 	 -97.2115 	 
H 	 -14.3957 	 -31.5919 	 -96.7686 	 
H 	 -16.0217 	 -31.0889 	 -97.4938 	 
C 	 -14.2391 	 -30.3669 	 -98.4926 	 
H 	 -14.824 	 -29.6198 	 -98.9444 	 
H 	 -13.2189 	 -30.0163 	 -98.3194 	 
H 	 -14.1765 	 -31.3241 	 -99.1652 	 
S 	 -20.4318 	 -28.0227 	 -95.8576 	 
C 	 -21.8229 	 -27.0486 	 -96.0945 	 
C 	 -21.6433 	 -26.2773 	 -97.2366 	 
C 	 -20.302 	 -26.3976 	 -97.7694 	 
C 	 -19.5205 	 -27.3655 	 -97.1289 	 
H 	 -22.476 	 -25.6182 	 -97.5273 	 
C 	 -19.8558 	 -25.5975 	 -98.9747 	 
H 	 -20.6991 	 -25.6214 	 -99.7187 	 
H 	 -18.9524 	 -26.0331 	 -99.4234 	 
C 	 -19.7914 	 -24.0515 	 -98.9066 	 
H 	 -20.8895 	 -23.7513 	 -98.7189 	 
H 	 -19.475 	 -23.5969 	 -99.9186 	 
C 	 -18.8988 	 -23.4053 	 -97.8261 	 
H 	 -19.0628 	 -24.0267 	 -96.9066 	 
H 	 -19.0986 	 -22.3667 	 -97.6147 	 
H 	 -17.7987 	 -23.5281 	 -97.976 	 
H 	 -14.5674 	 -26.9269 	 -96.8467 	 
H 	 -22.6304 	 -26.9745 	 -95.4283 	 
