34

S 	 -86.9367 	 -32.238 	 -56.8831 	 
C 	 -85.2969 	 -32.435 	 -57.3929 	 
C 	 -84.409 	 -31.8238 	 -56.5614 	 
C 	 -85.0313 	 -31.2686 	 -55.383 	 
C 	 -86.3887 	 -31.472 	 -55.3623 	 
H 	 -84.6674 	 -30.677 	 -54.5953 	 
C 	 -82.8924 	 -31.844 	 -56.606 	 
H 	 -82.639 	 -32.7037 	 -57.1952 	 
H 	 -82.5084 	 -32.2133 	 -55.5961 	 
C 	 -82.2208 	 -30.5671 	 -56.9782 	 
H 	 -81.1796 	 -30.9111 	 -57.2013 	 
H 	 -82.7345 	 -30.2284 	 -57.8798 	 
C 	 -82.1112 	 -29.5044 	 -55.8822 	 
H 	 -81.3312 	 -28.8499 	 -56.0629 	 
H 	 -83.025 	 -28.9788 	 -55.9799 	 
H 	 -82.0284 	 -29.7885 	 -54.7665 	 
S 	 -88.7791 	 -30.0395 	 -55.3652 	 
C 	 -89.6517 	 -29.8679 	 -53.928 	 
C 	 -88.9377 	 -30.2601 	 -52.8483 	 
C 	 -87.6168 	 -30.7054 	 -53.2287 	 
C 	 -87.4341 	 -30.8887 	 -54.5788 	 
H 	 -89.3434 	 -30.1109 	 -51.8806 	 
C 	 -86.6171 	 -31.1071 	 -52.1652 	 
H 	 -85.8207 	 -31.7149 	 -52.6269 	 
H 	 -87.2005 	 -31.7202 	 -51.4604 	 
C 	 -86.0455 	 -29.9489 	 -51.3938 	 
H 	 -86.8504 	 -29.5211 	 -50.8375 	 
H 	 -85.7659 	 -29.1933 	 -52.0836 	 
C 	 -84.9634 	 -30.2622 	 -50.3176 	 
H 	 -84.4897 	 -29.3456 	 -49.916 	 
H 	 -84.1833 	 -30.7994 	 -50.7154 	 
H 	 -85.3459 	 -30.7897 	 -49.5024 	 
H 	 -85.069 	 -32.8753 	 -58.3352 	 
H 	 -90.643 	 -29.4712 	 -53.8312 	 
