34

S 	 -89.643 	 -49.901 	 -75.5959 	 
C 	 -88.6606 	 -48.5391 	 -74.9357 	 
C 	 -87.6588 	 -48.2602 	 -75.8649 	 
C 	 -87.8955 	 -48.8888 	 -77.1406 	 
C 	 -88.9023 	 -49.8782 	 -77.1473 	 
H 	 -87.2562 	 -48.8392 	 -78.0043 	 
C 	 -86.3133 	 -47.4529 	 -75.5555 	 
H 	 -85.5005 	 -48.1098 	 -75.9122 	 
H 	 -86.327 	 -47.3426 	 -74.4078 	 
C 	 -86.2268 	 -46.1707 	 -76.3517 	 
H 	 -85.2873 	 -45.7227 	 -76.4276 	 
H 	 -86.3965 	 -46.3366 	 -77.3912 	 
C 	 -87.2051 	 -45.0237 	 -75.9088 	 
H 	 -87.2412 	 -44.8224 	 -74.82 	 
H 	 -87.0905 	 -44.142 	 -76.4772 	 
H 	 -88.2765 	 -45.1682 	 -76.112 	 
S 	 -89.3072 	 -52.3988 	 -78.1807 	 
C 	 -89.9014 	 -52.5219 	 -79.8229 	 
C 	 -90.1862 	 -51.2975 	 -80.4214 	 
C 	 -89.9379 	 -50.2117 	 -79.485 	 
C 	 -89.2825 	 -50.6437 	 -78.3216 	 
H 	 -90.4414 	 -51.3025 	 -81.4762 	 
C 	 -90.2971 	 -48.8151 	 -79.8992 	 
H 	 -90.0456 	 -48.7855 	 -80.9033 	 
H 	 -89.7545 	 -48.0355 	 -79.4896 	 
C 	 -91.7731 	 -48.4758 	 -79.7979 	 
H 	 -92.4406 	 -49.1208 	 -80.3166 	 
H 	 -91.9857 	 -47.5365 	 -80.2235 	 
C 	 -92.1862 	 -48.5021 	 -78.3357 	 
H 	 -93.265 	 -48.229 	 -78.2829 	 
H 	 -91.6423 	 -47.833 	 -77.7393 	 
H 	 -92.0391 	 -49.5078 	 -77.8843 	 
H 	 -88.5592 	 -48.2911 	 -73.8905 	 
H 	 -89.8474 	 -53.4919 	 -80.2898 	 
