34

S 	 25.3223 	 -0.721046 	 -112.268 	 
C 	 24.4727 	 -0.766541 	 -113.813 	 
C 	 23.4257 	 0.124547 	 -113.897 	 
C 	 23.439 	 0.987627 	 -112.794 	 
C 	 24.372 	 0.610987 	 -111.772 	 
H 	 22.8069 	 1.88399 	 -112.571 	 
C 	 22.4985 	 0.241668 	 -115.054 	 
H 	 23.1956 	 0.383478 	 -115.909 	 
H 	 21.8424 	 1.09816 	 -115.126 	 
C 	 21.5081 	 -0.96334 	 -115.258 	 
H 	 22.0287 	 -1.9225 	 -115.508 	 
H 	 21.0109 	 -1.19402 	 -114.297 	 
C 	 20.4292 	 -0.710366 	 -116.365 	 
H 	 19.5067 	 -1.32048 	 -116.329 	 
H 	 19.9939 	 0.287878 	 -116.178 	 
H 	 20.8602 	 -0.673589 	 -117.328 	 
S 	 23.9905 	 0.492341 	 -109.075 	 
C 	 24.7211 	 1.79341 	 -108.077 	 
C 	 25.3882 	 2.83285 	 -108.826 	 
C 	 25.4044 	 2.45217 	 -110.215 	 
C 	 24.5957 	 1.27258 	 -110.459 	 
H 	 25.8493 	 3.6602 	 -108.34 	 
C 	 26.1635 	 3.22201 	 -111.234 	 
H 	 26.4906 	 2.51752 	 -111.949 	 
H 	 27.101 	 3.55691 	 -110.838 	 
C 	 25.5133 	 4.30932 	 -112.091 	 
H 	 24.6897 	 3.99133 	 -112.712 	 
H 	 26.2228 	 4.70122 	 -112.782 	 
C 	 24.9442 	 5.41418 	 -111.282 	 
H 	 25.6724 	 5.98711 	 -110.695 	 
H 	 24.4042 	 4.92821 	 -110.489 	 
H 	 24.412 	 6.09693 	 -111.894 	 
H 	 24.6459 	 -1.54294 	 -114.56 	 
H 	 24.5554 	 2.02036 	 -106.982 	 
