34

S 	 -90.2529 	 -12.4325 	 -118.293 	 
C 	 -88.7374 	 -12.7829 	 -119.212 	 
C 	 -87.9086 	 -11.7216 	 -119.282 	 
C 	 -88.5365 	 -10.5793 	 -118.734 	 
C 	 -89.9434 	 -10.7204 	 -118.36 	 
H 	 -88.1512 	 -9.62267 	 -118.98 	 
C 	 -86.5036 	 -11.7866 	 -119.811 	 
H 	 -86.0899 	 -12.7932 	 -119.618 	 
H 	 -85.8328 	 -11.1359 	 -119.237 	 
C 	 -86.3719 	 -11.6288 	 -121.275 	 
H 	 -86.3591 	 -10.6015 	 -121.496 	 
H 	 -85.3967 	 -12.0172 	 -121.406 	 
C 	 -87.3348 	 -12.4993 	 -122.174 	 
H 	 -87.0119 	 -12.5249 	 -123.214 	 
H 	 -87.5397 	 -13.3898 	 -121.683 	 
H 	 -88.2916 	 -12.0571 	 -122.284 	 
S 	 -91.763 	 -10.2038 	 -116.401 	 
C 	 -92.4597 	 -8.51065 	 -116.293 	 
C 	 -91.992 	 -7.71231 	 -117.316 	 
C 	 -90.9372 	 -8.31986 	 -118.071 	 
C 	 -90.8311 	 -9.70187 	 -117.805 	 
H 	 -92.3199 	 -6.69904 	 -117.303 	 
C 	 -90.1786 	 -7.62642 	 -119.115 	 
H 	 -89.998 	 -8.34399 	 -119.988 	 
H 	 -89.1119 	 -7.57682 	 -118.744 	 
C 	 -90.7597 	 -6.2163 	 -119.529 	 
H 	 -90.5203 	 -5.53823 	 -118.692 	 
H 	 -91.8573 	 -6.22535 	 -119.719 	 
C 	 -90.0102 	 -5.63346 	 -120.706 	 
H 	 -90.1803 	 -4.58884 	 -120.825 	 
H 	 -90.1126 	 -6.20447 	 -121.579 	 
H 	 -88.9433 	 -5.68445 	 -120.524 	 
H 	 -88.4665 	 -13.7595 	 -119.514 	 
H 	 -93.1797 	 -8.18078 	 -115.62 	 
