34

S 	 -86.9094 	 1.44363 	 -118.743 	 
C 	 -87.0813 	 -0.237267 	 -118.46 	 
C 	 -88.4003 	 -0.68791 	 -118.191 	 
C 	 -89.2771 	 0.453455 	 -118.472 	 
C 	 -88.6216 	 1.66367 	 -118.694 	 
H 	 -90.3606 	 0.407258 	 -118.722 	 
C 	 -88.9546 	 -2.16919 	 -118.187 	 
H 	 -88.0263 	 -2.7655 	 -118.101 	 
H 	 -89.4895 	 -2.44416 	 -119.132 	 
C 	 -89.7871 	 -2.55861 	 -116.932 	 
H 	 -90.4038 	 -3.50845 	 -116.922 	 
H 	 -89.1676 	 -2.52025 	 -116.053 	 
C 	 -90.8991 	 -1.50611 	 -116.584 	 
H 	 -91.676 	 -1.53024 	 -117.391 	 
H 	 -91.4391 	 -1.78795 	 -115.693 	 
H 	 -90.5976 	 -0.437031 	 -116.467 	 
S 	 -88.4481 	 4.03969 	 -120.135 	 
C 	 -89.8573 	 5.00298 	 -120.327 	 
C 	 -90.9181 	 4.46748 	 -119.662 	 
C 	 -90.6586 	 3.29679 	 -118.936 	 
C 	 -89.3344 	 2.86221 	 -119.177 	 
H 	 -91.85 	 4.86182 	 -119.635 	 
C 	 -91.8586 	 2.55536 	 -118.328 	 
H 	 -92.4702 	 3.32569 	 -117.868 	 
H 	 -91.4309 	 1.97667 	 -117.51 	 
C 	 -92.6465 	 1.74664 	 -119.343 	 
H 	 -92.0055 	 1.02405 	 -119.85 	 
H 	 -92.9909 	 2.4271 	 -120.108 	 
C 	 -93.7922 	 0.973103 	 -118.658 	 
H 	 -94.5335 	 1.64475 	 -118.407 	 
H 	 -93.4504 	 0.399905 	 -117.78 	 
H 	 -94.1913 	 0.304275 	 -119.365 	 
H 	 -86.2674 	 -0.886235 	 -118.345 	 
H 	 -89.6866 	 5.99843 	 -120.74 	 
