34

S 	 -41.1235 	 -6.38186 	 15.3992 	 
C 	 -41.8196 	 -4.90368 	 15.9613 	 
C 	 -43.1651 	 -4.75935 	 15.7083 	 
C 	 -43.653 	 -5.90038 	 15.0663 	 
C 	 -42.689 	 -6.78337 	 14.6369 	 
H 	 -44.6143 	 -6.05823 	 14.8396 	 
C 	 -43.929 	 -3.54976 	 16.2599 	 
H 	 -43.3156 	 -2.9348 	 16.9806 	 
H 	 -44.8524 	 -3.94104 	 16.7439 	 
C 	 -44.4919 	 -2.66339 	 15.1326 	 
H 	 -43.7455 	 -2.18736 	 14.4806 	 
H 	 -44.993 	 -3.30521 	 14.4353 	 
C 	 -45.4814 	 -1.56842 	 15.6584 	 
H 	 -46.4425 	 -2.01267 	 15.9173 	 
H 	 -45.1386 	 -1.20841 	 16.669 	 
H 	 -45.6599 	 -0.675189 	 14.9824 	 
S 	 -41.9928 	 -9.4706 	 14.5383 	 
C 	 -42.5326 	 -10.5768 	 13.364 	 
C 	 -43.3613 	 -9.93001 	 12.5079 	 
C 	 -43.5969 	 -8.54865 	 12.8149 	 
C 	 -42.8297 	 -8.0517 	 13.8496 	 
H 	 -43.8512 	 -10.4467 	 11.7524 	 
C 	 -44.6944 	 -7.78829 	 12.0865 	 
H 	 -45.106 	 -7.1164 	 12.8516 	 
H 	 -45.5903 	 -8.43317 	 11.9847 	 
C 	 -44.2753 	 -6.86101 	 10.9769 	 
H 	 -43.8974 	 -7.51585 	 10.2107 	 
H 	 -43.5205 	 -6.16773 	 11.3839 	 
C 	 -45.4546 	 -6.11278 	 10.3329 	 
H 	 -46.0563 	 -5.63004 	 11.1541 	 
H 	 -46.1815 	 -6.75772 	 9.88786 	 
H 	 -45.1818 	 -5.39265 	 9.5016 	 
H 	 -41.2921 	 -4.12871 	 16.5364 	 
H 	 -42.2565 	 -11.5889 	 13.275 	 
