34

S 	 -122.876 	 64.0362 	 -53.7771 	 
C 	 -121.702 	 65.0761 	 -54.4788 	 
C 	 -121.076 	 65.9222 	 -53.6073 	 
C 	 -121.67 	 65.8275 	 -52.307 	 
C 	 -122.639 	 64.8449 	 -52.1856 	 
H 	 -121.424 	 66.4962 	 -51.4786 	 
C 	 -120.079 	 67.0494 	 -53.9896 	 
H 	 -119.303 	 66.6877 	 -54.6456 	 
H 	 -119.562 	 67.3169 	 -53.0637 	 
C 	 -120.588 	 68.4079 	 -54.5162 	 
H 	 -119.778 	 69.0001 	 -54.8034 	 
H 	 -121.198 	 68.2516 	 -55.4415 	 
C 	 -121.423 	 69.1298 	 -53.4908 	 
H 	 -121.646 	 70.0898 	 -54.0135 	 
H 	 -122.358 	 68.7227 	 -53.1755 	 
H 	 -120.721 	 69.3778 	 -52.7706 	 
S 	 -125.18 	 64.5593 	 -51.1835 	 
C 	 -125.526 	 64.198 	 -49.5866 	 
C 	 -124.364 	 64.2175 	 -48.7786 	 
C 	 -123.175 	 64.3908 	 -49.6346 	 
C 	 -123.442 	 64.5335 	 -50.998 	 
H 	 -124.277 	 64.1831 	 -47.6981 	 
C 	 -121.839 	 64.4969 	 -48.9754 	 
H 	 -121.151 	 64.5629 	 -49.8367 	 
H 	 -121.54 	 63.6308 	 -48.4052 	 
C 	 -121.716 	 65.7691 	 -48.0973 	 
H 	 -122.188 	 65.5666 	 -47.1204 	 
H 	 -122.241 	 66.5657 	 -48.6532 	 
C 	 -120.192 	 66.0902 	 -47.9607 	 
H 	 -120.04 	 66.8501 	 -47.2232 	 
H 	 -119.692 	 66.4865 	 -48.8528 	 
H 	 -119.652 	 65.2215 	 -47.5922 	 
H 	 -121.426 	 65.0275 	 -55.5247 	 
H 	 -126.451 	 63.9581 	 -49.136 	 
