34

S 	 -66.032 	 8.56297 	 18.3963 	 
C 	 -65.3293 	 9.84514 	 19.29 	 
C 	 -64.5007 	 9.41555 	 20.2775 	 
C 	 -64.5795 	 8.01067 	 20.481 	 
C 	 -65.3654 	 7.36428 	 19.5527 	 
H 	 -64.0204 	 7.43986 	 21.2283 	 
C 	 -63.7137 	 10.2826 	 21.2942 	 
H 	 -63.8011 	 9.75317 	 22.2693 	 
H 	 -64.1629 	 11.2647 	 21.5698 	 
C 	 -62.1993 	 10.4708 	 21.0606 	 
H 	 -61.7404 	 9.47539 	 21.2478 	 
H 	 -61.9524 	 10.7198 	 20.047 	 
C 	 -61.5913 	 11.4147 	 22.0383 	 
H 	 -60.5375 	 11.1885 	 21.9976 	 
H 	 -61.821 	 12.3587 	 21.6217 	 
H 	 -61.9465 	 11.1224 	 23.0251 	 
S 	 -67.4069 	 5.64597 	 19.5982 	 
C 	 -67.1173 	 3.95991 	 19.8074 	 
C 	 -65.793 	 3.61204 	 19.5857 	 
C 	 -64.9942 	 4.76798 	 19.3908 	 
C 	 -65.7515 	 5.96185 	 19.4701 	 
H 	 -65.4297 	 2.60254 	 19.6409 	 
C 	 -63.4231 	 4.61906 	 19.2945 	 
H 	 -63.1519 	 3.57062 	 19.4515 	 
H 	 -63.0349 	 5.1698 	 20.1527 	 
C 	 -62.8617 	 5.17498 	 17.9436 	 
H 	 -63.0512 	 6.25438 	 17.9865 	 
H 	 -63.529 	 5.03813 	 17.1187 	 
C 	 -61.4333 	 4.77183 	 17.645 	 
H 	 -61.3701 	 3.69441 	 17.5206 	 
H 	 -60.9018 	 4.90367 	 18.6142 	 
H 	 -61.0143 	 5.38624 	 16.8632 	 
H 	 -65.5515 	 10.9528 	 19.1726 	 
H 	 -67.8604 	 3.15823 	 19.8085 	 
