34

S 	 -101.951 	 25.0492 	 -118.071 	 
C 	 -103.428 	 24.0784 	 -118.178 	 
C 	 -104.129 	 24.3891 	 -119.329 	 
C 	 -103.401 	 25.3419 	 -120.185 	 
C 	 -102.161 	 25.8061 	 -119.649 	 
H 	 -103.71 	 25.693 	 -121.147 	 
C 	 -105.51 	 23.8872 	 -119.662 	 
H 	 -105.861 	 23.0453 	 -118.961 	 
H 	 -105.365 	 23.3242 	 -120.621 	 
C 	 -106.634 	 25.0098 	 -119.637 	 
H 	 -106.966 	 25.2398 	 -118.61 	 
H 	 -106.155 	 25.8507 	 -120.141 	 
C 	 -107.794 	 24.5881 	 -120.504 	 
H 	 -108.202 	 23.5947 	 -120.13 	 
H 	 -108.627 	 25.3358 	 -120.401 	 
H 	 -107.443 	 24.6876 	 -121.572 	 
S 	 -100.319 	 27.7986 	 -119.267 	 
C 	 -99.1144 	 28.1038 	 -120.47 	 
C 	 -99.3416 	 27.3866 	 -121.612 	 
C 	 -100.424 	 26.4732 	 -121.498 	 
C 	 -101.074 	 26.5825 	 -120.275 	 
H 	 -98.6369 	 27.5177 	 -122.418 	 
C 	 -100.935 	 25.6652 	 -122.706 	 
H 	 -101.885 	 26.0972 	 -123.116 	 
H 	 -101.303 	 24.65 	 -122.415 	 
C 	 -99.8978 	 25.4409 	 -123.887 	 
H 	 -98.9794 	 25.201 	 -123.426 	 
H 	 -99.5334 	 26.2193 	 -124.562 	 
C 	 -100.414 	 24.2745 	 -124.839 	 
H 	 -101.288 	 24.6547 	 -125.355 	 
H 	 -100.713 	 23.3626 	 -124.283 	 
H 	 -99.5876 	 24.0223 	 -125.58 	 
H 	 -103.836 	 23.4447 	 -117.358 	 
H 	 -98.4633 	 28.9164 	 -120.394 	 
