34

S 	 16.9188 	 -12.8231 	 -118.427 	 
C 	 16.1096 	 -11.3908 	 -117.788 	 
C 	 14.8257 	 -11.7644 	 -117.318 	 
C 	 14.424 	 -13.1219 	 -117.622 	 
C 	 15.4466 	 -13.8304 	 -118.202 	 
H 	 13.4902 	 -13.5626 	 -117.455 	 
C 	 13.8945 	 -10.7263 	 -116.68 	 
H 	 14.388 	 -10.1014 	 -115.97 	 
H 	 13.3479 	 -11.3671 	 -116.048 	 
C 	 13.0743 	 -9.82014 	 -117.636 	 
H 	 13.6272 	 -9.13722 	 -118.27 	 
H 	 12.5852 	 -10.4717 	 -118.334 	 
C 	 11.9785 	 -9.07298 	 -116.969 	 
H 	 11.3603 	 -8.58095 	 -117.765 	 
H 	 11.3423 	 -9.78457 	 -116.397 	 
H 	 12.2823 	 -8.30338 	 -116.179 	 
S 	 14.4917 	 -15.3985 	 -120.171 	 
C 	 14.9841 	 -17.0799 	 -120.215 	 
C 	 15.6687 	 -17.439 	 -119.13 	 
C 	 15.8851 	 -16.378 	 -118.186 	 
C 	 15.3099 	 -15.2465 	 -118.636 	 
H 	 16.1424 	 -18.3891 	 -119.077 	 
C 	 16.7045 	 -16.5686 	 -116.903 	 
H 	 16.9637 	 -15.5715 	 -116.544 	 
H 	 17.6571 	 -17.0474 	 -117.05 	 
C 	 15.902 	 -17.2071 	 -115.773 	 
H 	 15.5613 	 -18.1764 	 -116.268 	 
H 	 15.0345 	 -16.6414 	 -115.58 	 
C 	 16.5416 	 -17.4629 	 -114.426 	 
H 	 15.743 	 -17.8277 	 -113.786 	 
H 	 16.8825 	 -16.5436 	 -113.965 	 
H 	 17.4283 	 -18.1345 	 -114.497 	 
H 	 16.5505 	 -10.4687 	 -117.589 	 
H 	 14.7675 	 -17.7925 	 -121.025 	 
