34

S 	 -91.1593 	 -10.6853 	 -115.153 	 
C 	 -92.5495 	 -11.4738 	 -115.726 	 
C 	 -93.2139 	 -10.8762 	 -116.775 	 
C 	 -92.419 	 -9.80485 	 -117.263 	 
C 	 -91.3164 	 -9.55374 	 -116.467 	 
H 	 -92.6168 	 -9.21271 	 -118.116 	 
C 	 -94.4895 	 -11.3773 	 -117.43 	 
H 	 -94.7559 	 -12.3457 	 -116.974 	 
H 	 -94.4504 	 -11.5675 	 -118.535 	 
C 	 -95.7039 	 -10.3606 	 -117.254 	 
H 	 -95.6286 	 -9.46984 	 -117.863 	 
H 	 -96.5253 	 -10.9937 	 -117.589 	 
C 	 -95.9964 	 -9.9471 	 -115.8 	 
H 	 -97.0756 	 -9.83029 	 -115.638 	 
H 	 -95.7097 	 -10.7921 	 -115.122 	 
H 	 -95.3936 	 -9.03707 	 -115.449 	 
S 	 -88.8091 	 -8.9815 	 -117.488 	 
C 	 -88.5015 	 -7.29805 	 -117.978 	 
C 	 -89.4782 	 -6.45497 	 -117.567 	 
C 	 -90.5928 	 -7.13729 	 -116.951 	 
C 	 -90.3436 	 -8.49701 	 -116.84 	 
H 	 -89.3387 	 -5.40339 	 -117.742 	 
C 	 -91.843 	 -6.40404 	 -116.454 	 
H 	 -92.6055 	 -6.83544 	 -117.064 	 
H 	 -91.835 	 -5.33926 	 -116.744 	 
C 	 -92.2057 	 -6.49482 	 -114.953 	 
H 	 -92.3463 	 -7.55449 	 -114.663 	 
H 	 -93.1645 	 -5.96418 	 -114.87 	 
C 	 -91.1196 	 -5.8421 	 -114.109 	 
H 	 -91.0604 	 -4.7954 	 -114.306 	 
H 	 -90.1426 	 -6.36298 	 -114.31 	 
H 	 -91.2923 	 -5.87843 	 -113.059 	 
H 	 -93.0303 	 -12.3271 	 -115.225 	 
H 	 -87.6117 	 -7.11112 	 -118.583 	 
