34

S 	 -85.3505 	 -46.5888 	 -84.0314 	 
C 	 -86.4773 	 -45.684 	 -85.0039 	 
C 	 -87.7269 	 -45.5076 	 -84.3797 	 
C 	 -87.6504 	 -45.9745 	 -83.0493 	 
C 	 -86.4955 	 -46.6372 	 -82.739 	 
H 	 -88.5311 	 -45.9512 	 -82.4262 	 
C 	 -88.8586 	 -44.8322 	 -85.0597 	 
H 	 -88.5087 	 -44.2749 	 -85.9768 	 
H 	 -89.2909 	 -44.1189 	 -84.3625 	 
C 	 -89.917 	 -45.7757 	 -85.5515 	 
H 	 -90.3777 	 -46.2558 	 -84.7611 	 
H 	 -90.7974 	 -45.1331 	 -85.9488 	 
C 	 -89.5339 	 -46.5856 	 -86.7801 	 
H 	 -88.7947 	 -47.377 	 -86.5878 	 
H 	 -90.3848 	 -46.9503 	 -87.3613 	 
H 	 -89.0158 	 -46.0011 	 -87.5886 	 
S 	 -87.165 	 -48.6772 	 -81.0203 	 
C 	 -86.3632 	 -48.7926 	 -79.4717 	 
C 	 -85.1574 	 -48.144 	 -79.5494 	 
C 	 -85.0404 	 -47.2736 	 -80.6578 	 
C 	 -86.1757 	 -47.2959 	 -81.4687 	 
H 	 -84.4946 	 -48.2176 	 -78.7289 	 
C 	 -83.8041 	 -46.4052 	 -80.842 	 
H 	 -83.6379 	 -46.0034 	 -79.96 	 
H 	 -83.9712 	 -45.647 	 -81.5305 	 
C 	 -82.5615 	 -47.1265 	 -81.3579 	 
H 	 -82.8278 	 -47.8477 	 -82.1414 	 
H 	 -82.1322 	 -47.7941 	 -80.5935 	 
C 	 -81.455 	 -46.127 	 -81.7735 	 
H 	 -80.4833 	 -46.5737 	 -81.8338 	 
H 	 -81.3565 	 -45.4928 	 -80.9309 	 
H 	 -81.685 	 -45.5082 	 -82.7027 	 
H 	 -86.4922 	 -45.544 	 -86.0691 	 
H 	 -86.6827 	 -49.4361 	 -78.647 	 
