34

S 	 -126.289 	 65.689 	 -41.7645 	 
C 	 -124.619 	 66.0378 	 -42.0951 	 
C 	 -123.756 	 65.7427 	 -41.0692 	 
C 	 -124.537 	 65.1261 	 -39.9977 	 
C 	 -125.937 	 65.0475 	 -40.2129 	 
H 	 -124.144 	 64.7371 	 -39.1236 	 
C 	 -122.176 	 65.9177 	 -41.0867 	 
H 	 -122.023 	 66.8225 	 -40.5537 	 
H 	 -121.866 	 66.1268 	 -42.089 	 
C 	 -121.353 	 64.7692 	 -40.4508 	 
H 	 -120.299 	 65.0693 	 -40.4617 	 
H 	 -121.571 	 64.6406 	 -39.3567 	 
C 	 -121.439 	 63.4317 	 -41.1851 	 
H 	 -122.383 	 62.9798 	 -40.9468 	 
H 	 -121.255 	 63.5815 	 -42.2847 	 
H 	 -120.831 	 62.567 	 -40.8666 	 
S 	 -127.935 	 63.2367 	 -40.1002 	 
C 	 -128.673 	 62.8663 	 -38.5722 	 
C 	 -128.084 	 63.5469 	 -37.504 	 
C 	 -127.086 	 64.4968 	 -37.8968 	 
C 	 -126.915 	 64.4326 	 -39.3229 	 
H 	 -128.564 	 63.3736 	 -36.5114 	 
C 	 -126.336 	 65.3835 	 -36.9585 	 
H 	 -125.984 	 66.2663 	 -37.4964 	 
H 	 -125.422 	 64.9478 	 -36.6571 	 
C 	 -127.056 	 65.9824 	 -35.6913 	 
H 	 -127.082 	 65.1256 	 -34.9457 	 
H 	 -128.085 	 66.2894 	 -35.9438 	 
C 	 -126.462 	 67.1896 	 -35.1227 	 
H 	 -125.455 	 66.8669 	 -34.9967 	 
H 	 -126.888 	 67.3485 	 -34.15 	 
H 	 -126.557 	 68.0084 	 -35.8278 	 
H 	 -124.287 	 66.6538 	 -42.8842 	 
H 	 -129.388 	 62.1079 	 -38.418 	 
