34

S 	 -42.3048 	 -7.80581 	 4.90091 	 
C 	 -41.6903 	 -9.24962 	 5.68874 	 
C 	 -40.7986 	 -9.05336 	 6.70599 	 
C 	 -40.4518 	 -7.68186 	 6.6924 	 
C 	 -41.1429 	 -6.84763 	 5.77817 	 
H 	 -39.7004 	 -7.20788 	 7.29272 	 
C 	 -40.2191 	 -10.1768 	 7.57217 	 
H 	 -40.6184 	 -11.0088 	 7.0386 	 
H 	 -40.6335 	 -9.97766 	 8.55793 	 
C 	 -38.6668 	 -10.327 	 7.72942 	 
H 	 -38.4974 	 -11.0917 	 8.53205 	 
H 	 -38.3052 	 -10.7131 	 6.73035 	 
C 	 -37.8146 	 -9.09018 	 8.15586 	 
H 	 -38.1744 	 -8.58871 	 9.04762 	 
H 	 -36.7645 	 -9.35169 	 8.12767 	 
H 	 -37.9141 	 -8.44928 	 7.28051 	 
S 	 -42.7617 	 -4.73057 	 5.83654 	 
C 	 -42.0942 	 -3.10572 	 5.7646 	 
C 	 -40.6915 	 -3.11745 	 5.84521 	 
C 	 -40.1775 	 -4.44889 	 5.84777 	 
C 	 -41.1793 	 -5.43555 	 5.75254 	 
H 	 -40.18 	 -2.18516 	 5.84561 	 
C 	 -38.7346 	 -4.60265 	 5.97226 	 
H 	 -38.3497 	 -3.90367 	 5.21766 	 
H 	 -38.461 	 -5.5232 	 5.56566 	 
C 	 -38.1787 	 -4.47881 	 7.39656 	 
H 	 -38.4803 	 -5.35472 	 7.91943 	 
H 	 -38.7346 	 -3.70879 	 7.80594 	 
C 	 -36.6939 	 -4.21781 	 7.55146 	 
H 	 -36.0296 	 -4.99905 	 7.20139 	 
H 	 -36.3577 	 -3.87074 	 8.56153 	 
H 	 -36.2518 	 -3.35326 	 7.04015 	 
H 	 -42.1549 	 -10.2179 	 5.56848 	 
H 	 -42.6906 	 -2.17977 	 5.67784 	 
