34

S 	 -62.4792 	 9.24915 	 21.2772 	 
C 	 -61.1149 	 10.2878 	 21.3807 	 
C 	 -60.2741 	 9.87213 	 22.4116 	 
C 	 -60.6407 	 8.55458 	 22.961 	 
C 	 -61.8983 	 8.14326 	 22.5372 	 
H 	 -60.1175 	 7.95536 	 23.7222 	 
C 	 -59.0044 	 10.5623 	 22.8779 	 
H 	 -58.2508 	 10.5386 	 22.0631 	 
H 	 -58.5842 	 9.98743 	 23.716 	 
C 	 -59.1174 	 11.9679 	 23.3096 	 
H 	 -58.1432 	 12.4146 	 23.1961 	 
H 	 -59.8213 	 12.5069 	 22.6419 	 
C 	 -59.4703 	 12.0945 	 24.7736 	 
H 	 -59.7417 	 13.0562 	 25.0932 	 
H 	 -60.2856 	 11.3529 	 24.9742 	 
H 	 -58.6535 	 11.7239 	 25.2907 	 
S 	 -62.4143 	 6.39461 	 24.5874 	 
C 	 -63.3971 	 4.97112 	 24.3049 	 
C 	 -63.7557 	 4.87737 	 22.9905 	 
C 	 -63.187 	 5.90529 	 22.1747 	 
C 	 -62.5439 	 6.8331 	 22.9324 	 
H 	 -64.3302 	 3.95272 	 22.7567 	 
C 	 -63.4726 	 5.7907 	 20.6929 	 
H 	 -63.2526 	 4.73283 	 20.5408 	 
H 	 -62.8692 	 6.48094 	 20.1237 	 
C 	 -64.949 	 6.19009 	 20.2604 	 
H 	 -65.5963 	 5.45475 	 20.6907 	 
H 	 -65.0279 	 6.11461 	 19.1776 	 
C 	 -65.4966 	 7.55525 	 20.7182 	 
H 	 -66.5504 	 7.59727 	 20.4599 	 
H 	 -64.9129 	 8.33977 	 20.3516 	 
H 	 -65.6301 	 7.69289 	 21.7744 	 
H 	 -60.9636 	 11.3325 	 21.0164 	 
H 	 -63.6614 	 4.19233 	 25.0136 	 
