34

S 	 -97.9248 	 5.73228 	 -1.73661 	 
C 	 -98.455 	 7.2504 	 -2.38476 	 
C 	 -97.6753 	 7.66517 	 -3.48664 	 
C 	 -96.7064 	 6.65512 	 -3.82823 	 
C 	 -96.7765 	 5.53775 	 -3.05555 	 
H 	 -96.0652 	 6.7184 	 -4.72581 	 
C 	 -97.9688 	 8.93736 	 -4.24298 	 
H 	 -97.0394 	 9.4546 	 -4.20716 	 
H 	 -98.7227 	 9.44002 	 -3.6234 	 
C 	 -98.4204 	 8.80633 	 -5.69308 	 
H 	 -97.7176 	 8.19399 	 -6.19987 	 
H 	 -99.3496 	 8.21158 	 -5.68091 	 
C 	 -98.4234 	 10.164 	 -6.37033 	 
H 	 -99.0576 	 10.8824 	 -6.00025 	 
H 	 -97.4143 	 10.5138 	 -6.55062 	 
H 	 -98.7029 	 10.0681 	 -7.46226 	 
S 	 -97.3039 	 2.87153 	 -3.32857 	 
C 	 -95.8384 	 1.86803 	 -3.46334 	 
C 	 -94.6433 	 2.51569 	 -3.70732 	 
C 	 -94.8775 	 3.92096 	 -3.63016 	 
C 	 -96.216 	 4.25841 	 -3.34203 	 
H 	 -93.7313 	 1.98087 	 -3.87227 	 
C 	 -93.8144 	 4.91224 	 -3.92189 	 
H 	 -94.1142 	 5.84955 	 -3.40556 	 
H 	 -94.0432 	 5.11806 	 -4.99458 	 
C 	 -92.3384 	 4.59916 	 -3.65856 	 
H 	 -92.1857 	 3.59333 	 -4.07673 	 
H 	 -92.3107 	 4.4972 	 -2.59532 	 
C 	 -91.3915 	 5.6882 	 -3.99582 	 
H 	 -90.3227 	 5.48556 	 -3.90313 	 
H 	 -91.5161 	 6.56241 	 -3.3489 	 
H 	 -91.4181 	 6.02446 	 -5.01904 	 
H 	 -99.1241 	 8.00487 	 -1.95254 	 
H 	 -95.94 	 0.79377 	 -3.59102 	 
