34

S 	 -124.44 	 51.8342 	 -37.6676 	 
C 	 -123.435 	 50.9934 	 -38.7938 	 
C 	 -122.766 	 49.9624 	 -38.1747 	 
C 	 -123.007 	 49.9667 	 -36.775 	 
C 	 -123.835 	 50.9318 	 -36.2849 	 
H 	 -122.667 	 49.1706 	 -36.0587 	 
C 	 -122.055 	 48.8435 	 -38.9094 	 
H 	 -121.471 	 49.1844 	 -39.7887 	 
H 	 -122.852 	 48.2241 	 -39.2826 	 
C 	 -121.143 	 47.9427 	 -38.0947 	 
H 	 -121.756 	 47.4648 	 -37.3491 	 
H 	 -120.809 	 47.1619 	 -38.6522 	 
C 	 -119.9 	 48.5874 	 -37.4414 	 
H 	 -120.242 	 49.3884 	 -36.803 	 
H 	 -119.457 	 47.9605 	 -36.715 	 
H 	 -119.151 	 48.9046 	 -38.1373 	 
S 	 -125.779 	 52.0147 	 -34.7806 	 
C 	 -125.739 	 51.7962 	 -33.0663 	 
C 	 -124.527 	 51.2834 	 -32.6194 	 
C 	 -123.693 	 50.8079 	 -33.6849 	 
C 	 -124.232 	 51.1991 	 -34.9002 	 
H 	 -124.394 	 51.167 	 -31.524 	 
C 	 -122.27 	 50.2816 	 -33.3925 	 
H 	 -121.651 	 50.9401 	 -32.7595 	 
H 	 -121.757 	 50.4441 	 -34.3344 	 
C 	 -122.23 	 48.7756 	 -32.9892 	 
H 	 -122.765 	 48.6373 	 -32.0015 	 
H 	 -121.148 	 48.5377 	 -32.9021 	 
C 	 -122.73 	 47.6747 	 -33.9748 	 
H 	 -122.774 	 46.6948 	 -33.365 	 
H 	 -121.993 	 47.634 	 -34.7863 	 
H 	 -123.781 	 47.9198 	 -34.3477 	 
H 	 -123.479 	 51.2143 	 -39.8582 	 
H 	 -126.54 	 51.9939 	 -32.4271 	 
