34

S 	 -93.7628 	 -39.1276 	 -61.7064 	 
C 	 -94.083 	 -40.5756 	 -60.7614 	 
C 	 -94.5529 	 -40.3185 	 -59.4435 	 
C 	 -94.6306 	 -38.916 	 -59.2397 	 
C 	 -94.333 	 -38.1393 	 -60.3237 	 
H 	 -94.7855 	 -38.3286 	 -58.2949 	 
C 	 -94.8938 	 -41.344 	 -58.3256 	 
H 	 -94.3077 	 -42.2824 	 -58.4919 	 
H 	 -95.974 	 -41.6658 	 -58.3876 	 
C 	 -94.4876 	 -40.8747 	 -56.9694 	 
H 	 -93.4497 	 -40.5779 	 -57.0202 	 
H 	 -95.0546 	 -39.9404 	 -56.8095 	 
C 	 -94.6813 	 -41.943 	 -55.8574 	 
H 	 -95.6612 	 -42.2579 	 -55.7286 	 
H 	 -94.1305 	 -42.871 	 -55.9301 	 
H 	 -94.3821 	 -41.4826 	 -54.9693 	 
S 	 -92.7913 	 -35.9698 	 -61.0737 	 
C 	 -93.3751 	 -34.316 	 -60.4819 	 
C 	 -94.6605 	 -34.4248 	 -60.018 	 
C 	 -95.1312 	 -35.7579 	 -59.9505 	 
C 	 -94.2142 	 -36.7068 	 -60.3567 	 
H 	 -95.2305 	 -33.5659 	 -59.6939 	 
C 	 -96.6076 	 -35.9126 	 -59.5353 	 
H 	 -96.8968 	 -37.0132 	 -59.4788 	 
H 	 -97.1889 	 -35.4261 	 -60.3954 	 
C 	 -97.1357 	 -35.2621 	 -58.1981 	 
H 	 -98.2263 	 -35.4419 	 -58.3451 	 
H 	 -96.9759 	 -34.1721 	 -58.2913 	 
C 	 -96.4815 	 -35.7701 	 -56.9285 	 
H 	 -96.3885 	 -36.8529 	 -56.8808 	 
H 	 -97.0302 	 -35.5683 	 -56.0416 	 
H 	 -95.501 	 -35.2623 	 -56.8663 	 
H 	 -93.9181 	 -41.5737 	 -61.0394 	 
H 	 -92.7791 	 -33.4129 	 -60.5369 	 
