34

S 	 -37.2972 	 3.64975 	 6.06394 	 
C 	 -37.1322 	 5.19373 	 6.86722 	 
C 	 -37.9882 	 6.07872 	 6.2806 	 
C 	 -38.6731 	 5.51387 	 5.2059 	 
C 	 -38.2477 	 4.25256 	 4.82193 	 
H 	 -39.4675 	 6.10618 	 4.72289 	 
C 	 -38.2506 	 7.41829 	 6.8931 	 
H 	 -38.2882 	 7.33234 	 7.97178 	 
H 	 -39.2345 	 7.57123 	 6.53552 	 
C 	 -37.4218 	 8.55971 	 6.33143 	 
H 	 -37.2672 	 8.36921 	 5.26805 	 
H 	 -37.9049 	 9.52915 	 6.42736 	 
C 	 -35.9807 	 8.49869 	 6.95269 	 
H 	 -35.4095 	 7.64591 	 6.56294 	 
H 	 -35.4365 	 9.41161 	 6.72185 	 
H 	 -35.9295 	 8.30521 	 8.06272 	 
S 	 -38.7127 	 1.72014 	 4.0113 	 
C 	 -39.4917 	 1.30638 	 2.48988 	 
C 	 -39.7937 	 2.49153 	 1.85052 	 
C 	 -39.3546 	 3.73772 	 2.51025 	 
C 	 -38.7591 	 3.41514 	 3.74091 	 
H 	 -40.2664 	 2.4208 	 0.938181 	 
C 	 -39.8324 	 5.15642 	 1.92179 	 
H 	 -40.0828 	 5.8965 	 2.74272 	 
H 	 -40.7892 	 4.99686 	 1.43192 	 
C 	 -38.8417 	 5.82871 	 0.977163 	 
H 	 -39.2015 	 6.7792 	 0.65671 	 
H 	 -38.8013 	 5.13296 	 0.024704 	 
C 	 -37.4222 	 5.86213 	 1.41548 	 
H 	 -37.1756 	 4.87321 	 1.731 	 
H 	 -37.2378 	 6.49562 	 2.29021 	 
H 	 -36.8208 	 6.19102 	 0.550872 	 
H 	 -36.5058 	 5.46661 	 7.74945 	 
H 	 -40.0452 	 0.383015 	 2.10198 	 
