34

S 	 33.3604 	 -30.912 	 -114.071 	 
C 	 32.3506 	 -30.9993 	 -112.626 	 
C 	 33.1696 	 -31.3587 	 -111.565 	 
C 	 34.5527 	 -31.3508 	 -111.88 	 
C 	 34.8407 	 -31.018 	 -113.213 	 
H 	 35.4269 	 -31.4509 	 -111.135 	 
C 	 32.6903 	 -31.4806 	 -110.089 	 
H 	 32.2877 	 -30.5174 	 -110.007 	 
H 	 33.5336 	 -31.3806 	 -109.365 	 
C 	 31.7137 	 -32.6139 	 -109.906 	 
H 	 30.938 	 -32.5125 	 -110.676 	 
H 	 32.2017 	 -33.5831 	 -110.102 	 
C 	 31.049 	 -32.751 	 -108.512 	 
H 	 30.5183 	 -33.7156 	 -108.678 	 
H 	 31.7689 	 -32.7525 	 -107.722 	 
H 	 30.3072 	 -31.996 	 -108.304 	 
S 	 36.3467 	 -31.6361 	 -115.44 	 
C 	 38.1276 	 -31.3156 	 -115.543 	 
C 	 38.5296 	 -30.71 	 -114.339 	 
C 	 37.4242 	 -30.4559 	 -113.456 	 
C 	 36.1805 	 -30.9788 	 -113.885 	 
H 	 39.5558 	 -30.4603 	 -114.231 	 
C 	 37.6838 	 -29.7094 	 -112.124 	 
H 	 36.5932 	 -29.5033 	 -111.773 	 
H 	 38.2402 	 -28.8216 	 -112.404 	 
C 	 38.4278 	 -30.6589 	 -111.082 	 
H 	 39.3843 	 -30.7811 	 -111.448 	 
H 	 37.8935 	 -31.6118 	 -111.013 	 
C 	 38.5743 	 -30.1101 	 -109.654 	 
H 	 39.1705 	 -29.2262 	 -109.671 	 
H 	 39.2009 	 -30.7816 	 -109.059 	 
H 	 37.6494 	 -30.0251 	 -109.104 	 
H 	 31.2445 	 -30.8895 	 -112.585 	 
H 	 38.7185 	 -31.5098 	 -116.41 	 
