34

S 	 -55.0563 	 -48.3394 	 -82.5842 	 
C 	 -54.8096 	 -46.7482 	 -81.8639 	 
C 	 -53.5473 	 -46.7686 	 -81.1972 	 
C 	 -52.8726 	 -48.056 	 -81.2562 	 
C 	 -53.5516 	 -48.9787 	 -82.0028 	 
H 	 -51.9318 	 -48.2316 	 -80.9136 	 
C 	 -52.8624 	 -45.5895 	 -80.4496 	 
H 	 -53.1606 	 -45.8439 	 -79.3932 	 
H 	 -53.3618 	 -44.6623 	 -80.6436 	 
C 	 -51.321 	 -45.3526 	 -80.5775 	 
H 	 -51.1528 	 -44.3468 	 -80.2737 	 
H 	 -50.7818 	 -45.9987 	 -79.8347 	 
C 	 -50.6154 	 -45.5496 	 -81.959 	 
H 	 -49.4902 	 -45.3659 	 -81.9433 	 
H 	 -50.8011 	 -46.4675 	 -82.528 	 
H 	 -51.1161 	 -44.8758 	 -82.6043 	 
S 	 -54.2681 	 -51.6846 	 -82.2565 	 
C 	 -53.1156 	 -52.9102 	 -82.6915 	 
C 	 -51.9197 	 -52.3413 	 -82.8975 	 
C 	 -51.8708 	 -50.9286 	 -82.7304 	 
C 	 -53.0854 	 -50.3436 	 -82.3683 	 
H 	 -51.1066 	 -52.9952 	 -83.1239 	 
C 	 -50.6409 	 -50.1393 	 -83.1124 	 
H 	 -49.8767 	 -50.5522 	 -82.5334 	 
H 	 -50.9461 	 -49.1245 	 -82.7893 	 
C 	 -50.242 	 -50.1113 	 -84.566 	 
H 	 -51.0775 	 -50.2868 	 -85.2194 	 
H 	 -49.5877 	 -50.902 	 -84.7348 	 
C 	 -49.5791 	 -48.8233 	 -84.8871 	 
H 	 -48.6645 	 -48.6764 	 -84.3063 	 
H 	 -50.2596 	 -48.013 	 -84.767 	 
H 	 -49.2871 	 -48.7222 	 -85.9641 	 
H 	 -55.3304 	 -45.896 	 -82.028 	 
H 	 -53.3678 	 -53.9658 	 -82.7929 	 
