34

S 	 -98.4905 	 1.0888 	 -119.421 	 
C 	 -99.2176 	 1.01831 	 -121.013 	 
C 	 -100.444 	 1.61041 	 -121.032 	 
C 	 -100.852 	 2.11276 	 -119.772 	 
C 	 -99.9376 	 1.93221 	 -118.729 	 
H 	 -101.682 	 2.69984 	 -119.601 	 
C 	 -101.297 	 1.72702 	 -122.274 	 
H 	 -100.705 	 1.41883 	 -123.096 	 
H 	 -101.597 	 2.73973 	 -122.433 	 
C 	 -102.494 	 0.718168 	 -122.266 	 
H 	 -103.295 	 0.989097 	 -121.619 	 
H 	 -102.727 	 0.814345 	 -123.334 	 
C 	 -102.281 	 -0.757238 	 -122.049 	 
H 	 -101.423 	 -1.12129 	 -122.686 	 
H 	 -102.123 	 -1.08497 	 -121.027 	 
H 	 -103.153 	 -1.27423 	 -122.375 	 
S 	 -98.5891 	 2.98383 	 -116.67 	 
C 	 -99.3697 	 3.52968 	 -115.167 	 
C 	 -100.708 	 3.17119 	 -115.273 	 
C 	 -101.094 	 2.56989 	 -116.557 	 
C 	 -100.037 	 2.31029 	 -117.352 	 
H 	 -101.325 	 3.582 	 -114.475 	 
C 	 -102.568 	 2.46972 	 -116.822 	 
H 	 -103.03 	 1.94994 	 -115.983 	 
H 	 -102.685 	 1.87251 	 -117.735 	 
C 	 -103.069 	 3.85379 	 -116.967 	 
H 	 -102.675 	 4.35453 	 -117.826 	 
H 	 -102.855 	 4.42027 	 -116.082 	 
C 	 -104.64 	 3.75507 	 -117.111 	 
H 	 -104.912 	 3.39401 	 -118.083 	 
H 	 -105.111 	 4.65541 	 -117.189 	 
H 	 -105.168 	 3.19782 	 -116.291 	 
H 	 -98.8208 	 0.488513 	 -121.804 	 
H 	 -98.9443 	 4.15772 	 -114.405 	 
