34

S 	 -36.986 	 -51.9534 	 -74.509 	 
C 	 -35.2824 	 -52.3837 	 -74.6911 	 
C 	 -34.614 	 -51.2341 	 -75.1757 	 
C 	 -35.3863 	 -50.0924 	 -75.4025 	 
C 	 -36.7338 	 -50.3675 	 -75.2262 	 
H 	 -35.0235 	 -49.1311 	 -75.615 	 
C 	 -33.1231 	 -51.1381 	 -75.5394 	 
H 	 -32.5089 	 -51.7491 	 -74.8783 	 
H 	 -32.7807 	 -50.1298 	 -75.301 	 
C 	 -32.748 	 -51.3666 	 -77.0289 	 
H 	 -32.9479 	 -52.3885 	 -77.2349 	 
H 	 -33.4314 	 -50.8717 	 -77.7094 	 
C 	 -31.2961 	 -50.9975 	 -77.3495 	 
H 	 -31.1672 	 -51.1022 	 -78.4204 	 
H 	 -31.1558 	 -49.9459 	 -77.0846 	 
H 	 -30.5464 	 -51.7156 	 -76.9128 	 
S 	 -39.3592 	 -49.6416 	 -74.563 	 
C 	 -40.0337 	 -48.128 	 -75.0689 	 
C 	 -39.0947 	 -47.505 	 -75.8811 	 
C 	 -37.9156 	 -48.2283 	 -76.2383 	 
C 	 -37.8187 	 -49.3711 	 -75.4217 	 
H 	 -39.3102 	 -46.5622 	 -76.2453 	 
C 	 -36.8776 	 -47.6446 	 -77.1031 	 
H 	 -37.3588 	 -47.2132 	 -77.9872 	 
H 	 -36.1425 	 -48.383 	 -77.5075 	 
C 	 -36.1367 	 -46.5416 	 -76.4464 	 
H 	 -35.1918 	 -46.2773 	 -76.95 	 
H 	 -35.9256 	 -46.8303 	 -75.4659 	 
C 	 -36.9014 	 -45.1998 	 -76.3749 	 
H 	 -36.1746 	 -44.3866 	 -76.3428 	 
H 	 -37.6528 	 -45.0984 	 -75.527 	 
H 	 -37.407 	 -44.9842 	 -77.2631 	 
H 	 -34.865 	 -53.3956 	 -74.5807 	 
H 	 -40.8547 	 -47.6734 	 -74.722 	 
