34

S 	 -68.8911 	 7.48403 	 -73.4145 	 
C 	 -70.1059 	 7.92064 	 -72.1703 	 
C 	 -69.8639 	 7.24459 	 -70.9693 	 
C 	 -68.5748 	 6.62219 	 -71.0095 	 
C 	 -68.0529 	 6.5102 	 -72.2594 	 
H 	 -68.0897 	 6.058 	 -70.1988 	 
C 	 -70.6905 	 7.16632 	 -69.7012 	 
H 	 -71.2411 	 8.12119 	 -69.6166 	 
H 	 -69.9837 	 7.23511 	 -68.8694 	 
C 	 -71.7211 	 5.95594 	 -69.6213 	 
H 	 -71.2553 	 4.92698 	 -69.4012 	 
H 	 -72.3302 	 6.19051 	 -68.7619 	 
C 	 -72.6871 	 5.82224 	 -70.8293 	 
H 	 -72.0485 	 5.8071 	 -71.7649 	 
H 	 -73.4162 	 5.00624 	 -70.8254 	 
H 	 -73.1997 	 6.77691 	 -70.8444 	 
S 	 -65.7908 	 6.68412 	 -73.6864 	 
C 	 -64.4444 	 5.58476 	 -73.3345 	 
C 	 -64.9084 	 4.4623 	 -72.5468 	 
C 	 -66.2589 	 4.69193 	 -72.1389 	 
C 	 -66.8809 	 5.80042 	 -72.6412 	 
H 	 -64.311 	 3.55897 	 -72.3391 	 
C 	 -67.0599 	 3.70981 	 -71.2282 	 
H 	 -68.0811 	 4.04585 	 -71.3009 	 
H 	 -66.6304 	 3.85408 	 -70.2789 	 
C 	 -66.9006 	 2.22773 	 -71.6339 	 
H 	 -65.9338 	 1.95435 	 -71.364 	 
H 	 -66.9903 	 2.22748 	 -72.7537 	 
C 	 -67.9559 	 1.27023 	 -71.0516 	 
H 	 -68.0012 	 1.25356 	 -69.9323 	 
H 	 -67.8365 	 0.257856 	 -71.2855 	 
H 	 -68.9707 	 1.5095 	 -71.272 	 
H 	 -70.9037 	 8.64794 	 -72.3358 	 
H 	 -63.4947 	 5.57182 	 -73.8107 	 
