34

S 	 -3.68559 	 -21.1041 	 -105.794 	 
C 	 -3.22454 	 -22.7439 	 -106.139 	 
C 	 -3.63516 	 -23.665 	 -105.179 	 
C 	 -4.3706 	 -23.021 	 -104.156 	 
C 	 -4.41734 	 -21.6413 	 -104.292 	 
H 	 -4.96712 	 -23.5365 	 -103.399 	 
C 	 -3.40242 	 -25.1937 	 -105.308 	 
H 	 -2.7567 	 -25.3127 	 -106.249 	 
H 	 -4.4026 	 -25.581 	 -105.531 	 
C 	 -2.75982 	 -25.9564 	 -104.179 	 
H 	 -1.94876 	 -25.3336 	 -103.761 	 
H 	 -3.38782 	 -26.0974 	 -103.325 	 
C 	 -2.36729 	 -27.3582 	 -104.619 	 
H 	 -1.63224 	 -27.31 	 -105.332 	 
H 	 -1.97464 	 -27.8521 	 -103.703 	 
H 	 -3.25873 	 -27.8198 	 -104.948 	 
S 	 -6.45266 	 -19.755 	 -104.177 	 
C 	 -6.75738 	 -18.8692 	 -102.699 	 
C 	 -6.05587 	 -19.3637 	 -101.627 	 
C 	 -5.16556 	 -20.418 	 -101.997 	 
C 	 -5.16457 	 -20.7037 	 -103.416 	 
H 	 -6.17806 	 -18.9413 	 -100.665 	 
C 	 -4.0937 	 -20.9861 	 -101.069 	 
H 	 -3.67695 	 -21.8574 	 -101.554 	 
H 	 -4.5864 	 -21.2402 	 -100.094 	 
C 	 -2.95635 	 -19.9335 	 -100.754 	 
H 	 -2.64843 	 -19.4495 	 -101.719 	 
H 	 -2.03157 	 -20.5581 	 -100.554 	 
C 	 -3.29402 	 -18.7973 	 -99.778 	 
H 	 -2.34468 	 -18.2675 	 -99.5631 	 
H 	 -3.85733 	 -19.2253 	 -98.9295 	 
H 	 -3.99261 	 -18.0452 	 -100.173 	 
H 	 -2.78696 	 -23.0023 	 -107.06 	 
H 	 -7.29402 	 -17.9732 	 -102.63 	 
