34

S 	 -57.6563 	 13.1487 	 -95.3844 	 
C 	 -57.5532 	 13.32 	 -97.1311 	 
C 	 -57.9394 	 14.4936 	 -97.6802 	 
C 	 -58.3511 	 15.3829 	 -96.6454 	 
C 	 -58.2862 	 14.8252 	 -95.3768 	 
H 	 -58.712 	 16.3777 	 -96.8253 	 
C 	 -58.1302 	 14.7088 	 -99.2127 	 
H 	 -58.9 	 15.4224 	 -99.423 	 
H 	 -58.6054 	 13.8307 	 -99.5996 	 
C 	 -56.8239 	 15.2068 	 -99.8411 	 
H 	 -56.5054 	 16.1593 	 -99.423 	 
H 	 -56.0307 	 14.5555 	 -99.5896 	 
C 	 -56.9523 	 15.3424 	 -101.341 	 
H 	 -57.7704 	 15.9597 	 -101.64 	 
H 	 -56.1364 	 15.8903 	 -101.786 	 
H 	 -57.1219 	 14.3662 	 -101.821 	 
S 	 -60.3131 	 14.8832 	 -93.6356 	 
C 	 -60.5132 	 16.2012 	 -92.5517 	 
C 	 -59.4913 	 17.1564 	 -92.6608 	 
C 	 -58.5875 	 16.8843 	 -93.7189 	 
C 	 -58.7868 	 15.5894 	 -94.2066 	 
H 	 -59.608 	 18.0662 	 -92.1145 	 
C 	 -57.3418 	 17.7391 	 -93.958 	 
H 	 -56.6551 	 17.0688 	 -94.5239 	 
H 	 -56.8291 	 18.1366 	 -93.1236 	 
C 	 -57.6005 	 18.8864 	 -94.9323 	 
H 	 -58.2982 	 18.5861 	 -95.7498 	 
H 	 -56.5926 	 18.9875 	 -95.4213 	 
C 	 -58.0938 	 20.193 	 -94.2473 	 
H 	 -57.3966 	 20.5605 	 -93.5789 	 
H 	 -58.9542 	 20.0296 	 -93.6716 	 
H 	 -58.2067 	 20.9705 	 -95.0245 	 
H 	 -57.1494 	 12.513 	 -97.6957 	 
H 	 -61.1404 	 16.234 	 -91.7454 	 
