34

S 	 -63.753 	 14.999 	 -122.871 	 
C 	 -62.4769 	 14.6182 	 -121.797 	 
C 	 -62.9501 	 14.1453 	 -120.635 	 
C 	 -64.3423 	 13.8813 	 -120.618 	 
C 	 -64.9936 	 14.2862 	 -121.77 	 
H 	 -64.8128 	 13.309 	 -119.797 	 
C 	 -62.1555 	 13.9673 	 -119.351 	 
H 	 -62.7836 	 13.8214 	 -118.516 	 
H 	 -61.7153 	 14.9743 	 -119.149 	 
C 	 -61.1196 	 12.8395 	 -119.405 	 
H 	 -61.699 	 11.9191 	 -119.462 	 
H 	 -60.4405 	 12.983 	 -120.202 	 
C 	 -60.337 	 12.7493 	 -118.066 	 
H 	 -59.7641 	 13.6497 	 -117.799 	 
H 	 -61.0574 	 12.5721 	 -117.232 	 
H 	 -59.6272 	 11.8826 	 -118.155 	 
S 	 -66.5163 	 13.393 	 -123.92 	 
C 	 -68.2231 	 13.1553 	 -123.707 	 
C 	 -68.615 	 13.3373 	 -122.378 	 
C 	 -67.5413 	 13.9141 	 -121.603 	 
C 	 -66.3436 	 13.9589 	 -122.241 	 
H 	 -69.6534 	 13.0094 	 -122.154 	 
C 	 -67.7876 	 14.3434 	 -120.154 	 
H 	 -67.1994 	 13.7772 	 -119.427 	 
H 	 -68.7745 	 14.1748 	 -119.88 	 
C 	 -67.5212 	 15.896 	 -119.894 	 
H 	 -68.2279 	 16.3668 	 -120.561 	 
H 	 -66.571 	 16.2912 	 -120.24 	 
C 	 -67.7617 	 16.2265 	 -118.388 	 
H 	 -66.8962 	 16.593 	 -117.87 	 
H 	 -68.1751 	 15.3034 	 -117.911 	 
H 	 -68.4056 	 17.137 	 -118.192 	 
H 	 -61.4493 	 14.9898 	 -121.951 	 
H 	 -68.805 	 12.5776 	 -124.384 	 
