34

S 	 -63.5499 	 9.88995 	 19.9669 	 
C 	 -62.9573 	 11.191 	 21.0041 	 
C 	 -62.7087 	 10.6643 	 22.2358 	 
C 	 -62.7063 	 9.23278 	 22.2827 	 
C 	 -63.0784 	 8.62944 	 21.0906 	 
H 	 -62.3888 	 8.56357 	 23.0621 	 
C 	 -62.2785 	 11.4938 	 23.4761 	 
H 	 -62.5847 	 10.8196 	 24.2519 	 
H 	 -62.8131 	 12.4034 	 23.6704 	 
C 	 -60.7519 	 11.6261 	 23.5804 	 
H 	 -60.2696 	 10.6471 	 23.5767 	 
H 	 -60.2717 	 12.037 	 22.6478 	 
C 	 -60.309 	 12.4656 	 24.8317 	 
H 	 -59.2524 	 12.641 	 24.7357 	 
H 	 -60.7655 	 13.5024 	 24.9593 	 
H 	 -60.4326 	 11.9894 	 25.7588 	 
S 	 -64.8777 	 6.62204 	 20.7593 	 
C 	 -64.352 	 4.98164 	 20.5758 	 
C 	 -63.0299 	 4.82287 	 20.8356 	 
C 	 -62.4096 	 6.11677 	 21.0911 	 
C 	 -63.2452 	 7.17357 	 20.8496 	 
H 	 -62.3848 	 3.91187 	 20.7119 	 
C 	 -60.9456 	 6.16365 	 21.2617 	 
H 	 -60.7934 	 6.84716 	 22.057 	 
H 	 -60.5868 	 6.66325 	 20.3367 	 
C 	 -60.0219 	 5.01222 	 21.558 	 
H 	 -60.0086 	 4.43816 	 20.6654 	 
H 	 -60.2963 	 4.39811 	 22.4136 	 
C 	 -58.5695 	 5.54448 	 21.7205 	 
H 	 -57.7572 	 4.73513 	 21.7852 	 
H 	 -58.4111 	 6.18353 	 22.5433 	 
H 	 -58.3382 	 6.29117 	 20.8865 	 
H 	 -62.927 	 12.2347 	 20.7152 	 
H 	 -65.0054 	 4.22556 	 20.1713 	 
