34

S 	 -82.718 	 -42.9624 	 -87.2105 	 
C 	 -82.3721 	 -41.8465 	 -85.9153 	 
C 	 -82.6511 	 -40.5214 	 -86.2166 	 
C 	 -83.4708 	 -40.4399 	 -87.4028 	 
C 	 -83.6486 	 -41.6489 	 -88.0191 	 
H 	 -84.0365 	 -39.5805 	 -87.787 	 
C 	 -82.4113 	 -39.3524 	 -85.2754 	 
H 	 -82.4033 	 -39.8629 	 -84.2945 	 
H 	 -83.3542 	 -38.8475 	 -85.3005 	 
C 	 -81.2325 	 -38.377 	 -85.4837 	 
H 	 -80.2293 	 -38.7832 	 -85.2657 	 
H 	 -81.1213 	 -38.0054 	 -86.4961 	 
C 	 -81.2303 	 -37.1847 	 -84.5806 	 
H 	 -80.3929 	 -36.5149 	 -84.7794 	 
H 	 -82.1762 	 -36.6111 	 -84.5647 	 
H 	 -80.9792 	 -37.4629 	 -83.5949 	 
S 	 -83.5676 	 -41.6358 	 -90.8047 	 
C 	 -84.9834 	 -42.0627 	 -91.6271 	 
C 	 -86.1217 	 -42.0885 	 -90.8366 	 
C 	 -85.8007 	 -42.042 	 -89.4016 	 
C 	 -84.4171 	 -41.8657 	 -89.209 	 
H 	 -87.147 	 -42.1567 	 -91.1899 	 
C 	 -86.8377 	 -42.2889 	 -88.2519 	 
H 	 -87.8088 	 -42.0505 	 -88.7096 	 
H 	 -86.7479 	 -41.6217 	 -87.3685 	 
C 	 -86.8394 	 -43.7217 	 -87.7225 	 
H 	 -87.4081 	 -43.7388 	 -86.7962 	 
H 	 -85.7922 	 -44.0379 	 -87.4442 	 
C 	 -87.3053 	 -44.7599 	 -88.7132 	 
H 	 -88.2621 	 -44.5074 	 -89.0946 	 
H 	 -87.3518 	 -45.7664 	 -88.2388 	 
H 	 -86.5731 	 -44.807 	 -89.5758 	 
H 	 -81.7759 	 -42.0391 	 -85.0537 	 
H 	 -84.9106 	 -42.3281 	 -92.6676 	 
