34

S 	 46.7643 	 -21.3809 	 -113.485 	 
C 	 47.7183 	 -19.8929 	 -113.209 	 
C 	 47.4358 	 -19.3218 	 -111.978 	 
C 	 46.4871 	 -20.1218 	 -111.235 	 
C 	 46.0503 	 -21.2609 	 -111.94 	 
H 	 46.0395 	 -19.8701 	 -110.343 	 
C 	 47.9844 	 -17.9484 	 -111.446 	 
H 	 47.1397 	 -17.4785 	 -110.969 	 
H 	 48.2549 	 -17.2483 	 -112.243 	 
C 	 49.1991 	 -18.0762 	 -110.498 	 
H 	 49.9589 	 -18.7298 	 -110.983 	 
H 	 49.6415 	 -17.0741 	 -110.408 	 
C 	 48.8912 	 -18.769 	 -109.149 	 
H 	 48.0527 	 -18.4189 	 -108.703 	 
H 	 48.5994 	 -19.7669 	 -109.318 	 
H 	 49.7684 	 -18.6045 	 -108.513 	 
S 	 43.8546 	 -22.5756 	 -112.617 	 
C 	 43.0953 	 -23.6547 	 -111.391 	 
C 	 43.9179 	 -23.8608 	 -110.311 	 
C 	 45.0476 	 -23.0102 	 -110.317 	 
C 	 45.1275 	 -22.2461 	 -111.437 	 
H 	 43.6061 	 -24.5671 	 -109.553 	 
C 	 46.1631 	 -23.0623 	 -109.285 	 
H 	 45.6796 	 -23.0957 	 -108.278 	 
H 	 46.6976 	 -22.0891 	 -109.32 	 
C 	 47.1794 	 -24.2154 	 -109.453 	 
H 	 46.5772 	 -25.1139 	 -109.386 	 
H 	 48.0553 	 -24.1437 	 -108.751 	 
C 	 48.0447 	 -24.3096 	 -110.745 	 
H 	 47.4412 	 -25.015 	 -111.275 	 
H 	 49.0252 	 -24.7544 	 -110.532 	 
H 	 48.2006 	 -23.3867 	 -111.263 	 
H 	 48.4558 	 -19.4689 	 -113.878 	 
H 	 42.1598 	 -24.1736 	 -111.59 	 
