34

S 	 -90.0782 	 -38.6321 	 -63.1772 	 
C 	 -90.2898 	 -40.1743 	 -63.9692 	 
C 	 -90.4723 	 -41.1339 	 -62.9278 	 
C 	 -90.3342 	 -40.6403 	 -61.6069 	 
C 	 -90.2657 	 -39.275 	 -61.5383 	 
H 	 -90.4463 	 -41.2047 	 -60.66 	 
C 	 -90.7275 	 -42.5674 	 -63.2259 	 
H 	 -90.8288 	 -42.5835 	 -64.3076 	 
H 	 -91.5915 	 -42.7992 	 -62.6535 	 
C 	 -89.5798 	 -43.5213 	 -62.7508 	 
H 	 -88.6505 	 -43.3184 	 -63.3229 	 
H 	 -89.2508 	 -43.2642 	 -61.734 	 
C 	 -90.066 	 -45.0075 	 -62.9082 	 
H 	 -90.5346 	 -45.0918 	 -63.8836 	 
H 	 -89.2914 	 -45.7071 	 -62.9198 	 
H 	 -90.6617 	 -45.243 	 -62.0112 	 
S 	 -88.8255 	 -37.2861 	 -60.2412 	 
C 	 -89.0464 	 -37.1177 	 -58.521 	 
C 	 -90.1223 	 -37.8015 	 -58.0668 	 
C 	 -90.6998 	 -38.5808 	 -59.0769 	 
C 	 -90.137 	 -38.4197 	 -60.3294 	 
H 	 -90.3703 	 -37.7546 	 -57.0761 	 
C 	 -91.8509 	 -39.5147 	 -58.7655 	 
H 	 -91.9021 	 -40.0161 	 -59.7167 	 
H 	 -92.8633 	 -38.9577 	 -58.7359 	 
C 	 -91.7619 	 -40.5869 	 -57.7212 	 
H 	 -92.6914 	 -41.2101 	 -57.94 	 
H 	 -91.849 	 -40.1772 	 -56.6823 	 
C 	 -90.6274 	 -41.5404 	 -57.8411 	 
H 	 -90.6486 	 -42.0285 	 -56.839 	 
H 	 -89.6468 	 -41.1248 	 -58.0286 	 
H 	 -90.7177 	 -42.2906 	 -58.6455 	 
H 	 -90.1403 	 -40.3723 	 -65.0642 	 
H 	 -88.6727 	 -36.3422 	 -57.9178 	 
