34

S 	 -76.172 	 -3.83805 	 -59.7042 	 
C 	 -76.842 	 -2.62638 	 -60.743 	 
C 	 -78.2206 	 -2.47028 	 -60.5632 	 
C 	 -78.7453 	 -3.65242 	 -59.8352 	 
C 	 -77.752 	 -4.51213 	 -59.3443 	 
H 	 -79.8096 	 -3.88927 	 -59.736 	 
C 	 -79.0858 	 -1.35751 	 -61.2276 	 
H 	 -78.3822 	 -0.811085 	 -61.9253 	 
H 	 -79.3954 	 -0.673415 	 -60.3667 	 
C 	 -80.3828 	 -1.81545 	 -61.9709 	 
H 	 -80.3326 	 -2.64567 	 -62.691 	 
H 	 -81.1417 	 -2.15997 	 -61.3005 	 
C 	 -81.0027 	 -0.689642 	 -62.8009 	 
H 	 -81.8423 	 -1.13881 	 -63.2516 	 
H 	 -81.3054 	 0.113115 	 -62.1397 	 
H 	 -80.3046 	 -0.158371 	 -63.5142 	 
S 	 -76.7297 	 -6.9936 	 -58.6854 	 
C 	 -77.7423 	 -8.08058 	 -57.811 	 
C 	 -78.7137 	 -7.3882 	 -57.1154 	 
C 	 -78.8703 	 -6.08175 	 -57.6012 	 
C 	 -77.9294 	 -5.74352 	 -58.5819 	 
H 	 -79.3808 	 -7.91086 	 -56.3998 	 
C 	 -79.9372 	 -5.0829 	 -57.1013 	 
H 	 -80.9177 	 -5.30538 	 -57.5301 	 
H 	 -79.6871 	 -4.08933 	 -57.4684 	 
C 	 -80.0323 	 -4.91839 	 -55.5969 	 
H 	 -80.4191 	 -5.81406 	 -55.132 	 
H 	 -80.84 	 -4.18581 	 -55.501 	 
C 	 -78.7844 	 -4.44361 	 -54.8329 	 
H 	 -78.2928 	 -3.63308 	 -55.4166 	 
H 	 -78.0615 	 -5.2019 	 -54.7659 	 
H 	 -78.9518 	 -4.11395 	 -53.8201 	 
H 	 -76.273 	 -1.84594 	 -61.2204 	 
H 	 -77.5544 	 -9.12099 	 -57.6663 	 
