34

S 	 -104.888 	 61.5528 	 -99.8393 	 
C 	 -103.582 	 61.0444 	 -98.8419 	 
C 	 -104.089 	 60.5191 	 -97.6698 	 
C 	 -105.524 	 60.6425 	 -97.5789 	 
C 	 -106.08 	 61.2295 	 -98.6803 	 
H 	 -106.117 	 60.3265 	 -96.7341 	 
C 	 -103.339 	 59.9369 	 -96.4257 	 
H 	 -102.384 	 60.4494 	 -96.338 	 
H 	 -103.053 	 58.8654 	 -96.6497 	 
C 	 -104.187 	 60.0359 	 -95.0557 	 
H 	 -104.309 	 61.0638 	 -95.0295 	 
H 	 -105.241 	 59.6151 	 -95.0232 	 
C 	 -103.511 	 59.5361 	 -93.8412 	 
H 	 -103.341 	 58.4211 	 -93.8026 	 
H 	 -102.468 	 59.9451 	 -93.7934 	 
H 	 -104.059 	 59.7401 	 -92.9114 	 
S 	 -108.124 	 62.6489 	 -97.6244 	 
C 	 -109.666 	 62.564 	 -98.3701 	 
C 	 -109.656 	 61.8297 	 -99.5813 	 
C 	 -108.329 	 61.3268 	 -99.8357 	 
C 	 -107.429 	 61.6457 	 -98.8216 	 
H 	 -110.634 	 61.6877 	 -100.08 	 
C 	 -108.048 	 60.4219 	 -100.972 	 
H 	 -108.964 	 59.8876 	 -101.046 	 
H 	 -107.125 	 59.8675 	 -100.873 	 
C 	 -107.941 	 61.2328 	 -102.244 	 
H 	 -107.257 	 62.0482 	 -101.981 	 
H 	 -108.951 	 61.5554 	 -102.516 	 
C 	 -107.385 	 60.3538 	 -103.383 	 
H 	 -108.014 	 59.4847 	 -103.589 	 
H 	 -106.347 	 60.0319 	 -103.236 	 
H 	 -107.278 	 60.8914 	 -104.345 	 
H 	 -102.517 	 61.1376 	 -99.0142 	 
H 	 -110.571 	 63.0216 	 -97.896 	 
