34

S 	 -139.272 	 6.8143 	 3.81483 	 
C 	 -139.808 	 7.56872 	 2.30611 	 
C 	 -140.474 	 8.79873 	 2.56199 	 
C 	 -140.673 	 8.97826 	 3.96743 	 
C 	 -140.143 	 7.94551 	 4.75486 	 
H 	 -141.238 	 9.81159 	 4.43262 	 
C 	 -141.088 	 9.67807 	 1.57792 	 
H 	 -140.312 	 9.78357 	 0.776052 	 
H 	 -141.183 	 10.7316 	 1.91017 	 
C 	 -142.457 	 9.2223 	 1.08678 	 
H 	 -142.335 	 8.25016 	 0.629128 	 
H 	 -143.042 	 9.01038 	 1.93274 	 
C 	 -143.088 	 10.1464 	 0.0142201 	 
H 	 -142.473 	 10.6246 	 -0.73038 	 
H 	 -143.999 	 9.69432 	 -0.498265 	 
H 	 -143.555 	 11.0138 	 0.555314 	 
S 	 -138.254 	 7.64164 	 6.79506 	 
C 	 -138.758 	 8.1323 	 8.37784 	 
C 	 -140.151 	 8.28221 	 8.45355 	 
C 	 -140.848 	 8.07124 	 7.19917 	 
C 	 -139.888 	 7.99347 	 6.16071 	 
H 	 -140.552 	 8.73551 	 9.3876 	 
C 	 -142.343 	 8.04083 	 7.1031 	 
H 	 -142.473 	 8.00017 	 5.99179 	 
H 	 -142.756 	 8.94125 	 7.44321 	 
C 	 -143.075 	 6.93237 	 7.83138 	 
H 	 -142.599 	 6.90979 	 8.81474 	 
H 	 -142.722 	 6.09066 	 7.29893 	 
C 	 -144.613 	 7.03963 	 7.85735 	 
H 	 -145.002 	 6.5165 	 8.74128 	 
H 	 -145.1 	 6.61428 	 6.99167 	 
H 	 -145.006 	 8.06226 	 7.93943 	 
H 	 -139.659 	 7.10862 	 1.33558 	 
H 	 -138.026 	 8.45039 	 9.06986 	 
