34

S 	 -123.365 	 61.3753 	 -52.5472 	 
C 	 -123 	 62.8517 	 -51.6422 	 
C 	 -124.159 	 63.5994 	 -51.322 	 
C 	 -125.279 	 63.1494 	 -52.0736 	 
C 	 -125.09 	 61.9414 	 -52.7089 	 
H 	 -126.258 	 63.6664 	 -52.1356 	 
C 	 -124.126 	 64.8671 	 -50.5387 	 
H 	 -123.163 	 65.149 	 -50.2613 	 
H 	 -124.662 	 64.7075 	 -49.5781 	 
C 	 -124.826 	 66.0255 	 -51.3401 	 
H 	 -125.837 	 65.7705 	 -51.5133 	 
H 	 -124.942 	 66.927 	 -50.8329 	 
C 	 -124.198 	 66.3586 	 -52.7271 	 
H 	 -124.726 	 67.0987 	 -53.3029 	 
H 	 -123.191 	 66.6874 	 -52.4768 	 
H 	 -124.02 	 65.4966 	 -53.3116 	 
S 	 -125.463 	 61.2243 	 -55.2338 	 
C 	 -127.032 	 60.7051 	 -55.7588 	 
C 	 -127.928 	 60.6474 	 -54.7324 	 
C 	 -127.385 	 61.0503 	 -53.4668 	 
C 	 -126.062 	 61.4399 	 -53.6065 	 
H 	 -128.848 	 60.1411 	 -54.9184 	 
C 	 -128.078 	 60.7499 	 -52.1705 	 
H 	 -127.845 	 61.6963 	 -51.5802 	 
H 	 -127.545 	 59.8704 	 -51.7388 	 
C 	 -129.574 	 60.4092 	 -52.2205 	 
H 	 -129.721 	 59.5659 	 -52.8699 	 
H 	 -130.163 	 61.2836 	 -52.6383 	 
C 	 -130.151 	 60.2244 	 -50.8059 	 
H 	 -129.614 	 59.467 	 -50.3258 	 
H 	 -131.141 	 59.8324 	 -50.9747 	 
H 	 -130.153 	 61.2121 	 -50.2597 	 
H 	 -122.043 	 63.089 	 -51.2385 	 
H 	 -127.294 	 60.5832 	 -56.7791 	 
