34

S 	 -102.743 	 62.1627 	 -9.76976 	 
C 	 -104.009 	 63.3858 	 -9.74677 	 
C 	 -103.43 	 64.6335 	 -9.51389 	 
C 	 -102.009 	 64.6384 	 -9.42839 	 
C 	 -101.479 	 63.3945 	 -9.50477 	 
H 	 -101.413 	 65.5443 	 -9.47257 	 
C 	 -104.281 	 65.8401 	 -9.35856 	 
H 	 -103.986 	 66.4117 	 -8.453 	 
H 	 -105.202 	 65.3842 	 -9.12867 	 
C 	 -104.427 	 66.7905 	 -10.5633 	 
H 	 -103.471 	 67.1683 	 -10.8521 	 
H 	 -104.74 	 66.2483 	 -11.4698 	 
C 	 -105.372 	 67.9823 	 -10.2103 	 
H 	 -105.037 	 68.6057 	 -9.3565 	 
H 	 -105.488 	 68.6702 	 -11.0269 	 
H 	 -106.4 	 67.7061 	 -10.0812 	 
S 	 -99.5564 	 62.055 	 -10.8177 	 
C 	 -97.8293 	 62.3434 	 -10.3572 	 
C 	 -97.7427 	 63.2524 	 -9.35692 	 
C 	 -99.0242 	 63.6847 	 -8.8436 	 
C 	 -100.072 	 63.0396 	 -9.47055 	 
H 	 -96.8552 	 63.6148 	 -8.8738 	 
C 	 -99.2 	 64.6465 	 -7.69531 	 
H 	 -100.198 	 64.4715 	 -7.24808 	 
H 	 -99.1973 	 65.7532 	 -7.86616 	 
C 	 -98.1611 	 64.49 	 -6.5229 	 
H 	 -98.3864 	 65.1551 	 -5.71676 	 
H 	 -97.2118 	 64.9181 	 -6.78523 	 
C 	 -98.1377 	 63.1656 	 -5.77352 	 
H 	 -97.2385 	 63.2128 	 -5.23202 	 
H 	 -97.9129 	 62.3752 	 -6.50693 	 
H 	 -98.9436 	 62.8569 	 -5.15564 	 
H 	 -105.106 	 63.2614 	 -9.7735 	 
H 	 -97.0424 	 61.798 	 -10.8518 	 
