34

S 	 -50.0469 	 17.8007 	 27.854 	 
C 	 -49.6366 	 16.1056 	 27.5124 	 
C 	 -49.7198 	 15.373 	 28.6975 	 
C 	 -50.135 	 16.0952 	 29.8533 	 
C 	 -50.2379 	 17.4068 	 29.6076 	 
H 	 -50.2016 	 15.6006 	 30.8214 	 
C 	 -49.4262 	 13.8566 	 28.7495 	 
H 	 -49.0053 	 13.486 	 29.7364 	 
H 	 -48.5897 	 13.6297 	 28.0321 	 
C 	 -50.6596 	 12.9842 	 28.2526 	 
H 	 -50.8845 	 13.35 	 27.2549 	 
H 	 -50.1778 	 11.9759 	 28.204 	 
C 	 -51.8854 	 13.0723 	 29.0543 	 
H 	 -51.5295 	 13.2801 	 30.0359 	 
H 	 -52.4349 	 13.9569 	 28.7639 	 
H 	 -52.512 	 12.161 	 28.8554 	 
S 	 -49.4299 	 19.84 	 30.604 	 
C 	 -50.3754 	 20.564 	 31.908 	 
C 	 -51.5874 	 19.8723 	 32.1023 	 
C 	 -51.6872 	 18.7264 	 31.2918 	 
C 	 -50.5635 	 18.4842 	 30.5303 	 
H 	 -52.3276 	 20.2826 	 32.797 	 
C 	 -52.9683 	 17.8903 	 31.3298 	 
H 	 -53.1797 	 17.7052 	 30.3231 	 
H 	 -53.7304 	 18.5763 	 31.7057 	 
C 	 -52.8975 	 16.5569 	 32.1254 	 
H 	 -52.0926 	 16.757 	 32.8327 	 
H 	 -52.5845 	 15.6367 	 31.6142 	 
C 	 -54.1337 	 16.1163 	 32.8364 	 
H 	 -54.7403 	 16.9795 	 33.2162 	 
H 	 -53.8204 	 15.3586 	 33.6181 	 
H 	 -54.7921 	 15.4703 	 32.2595 	 
H 	 -49.2836 	 15.6157 	 26.6334 	 
H 	 -50.1493 	 21.4251 	 32.5716 	 
