34

S 	 -54.4392 	 3.34915 	 -19.7593 	 
C 	 -56.0239 	 2.59608 	 -19.5115 	 
C 	 -56.928 	 3.59138 	 -19.0755 	 
C 	 -56.377 	 4.83612 	 -18.6955 	 
C 	 -55.008 	 4.82794 	 -18.9724 	 
H 	 -56.9765 	 5.62682 	 -18.2252 	 
C 	 -58.416 	 3.2716 	 -18.9817 	 
H 	 -58.462 	 2.34 	 -19.4349 	 
H 	 -58.9439 	 3.92188 	 -19.6566 	 
C 	 -59.0865 	 3.38016 	 -17.6026 	 
H 	 -58.4708 	 2.87869 	 -16.8734 	 
H 	 -58.9913 	 4.41022 	 -17.3496 	 
C 	 -60.577 	 2.8818 	 -17.69 	 
H 	 -61.1463 	 3.23376 	 -16.7819 	 
H 	 -61.059 	 3.3688 	 -18.5094 	 
H 	 -60.6193 	 1.819 	 -17.7696 	 
S 	 -53.2889 	 5.76902 	 -17.0839 	 
C 	 -52.8161 	 7.41814 	 -17.1044 	 
C 	 -53.2876 	 8.04978 	 -18.2237 	 
C 	 -54.1412 	 7.22906 	 -19.0182 	 
C 	 -54.1427 	 5.89534 	 -18.6361 	 
H 	 -52.9994 	 9.06706 	 -18.2871 	 
C 	 -54.9 	 7.72383 	 -20.2678 	 
H 	 -55.9256 	 7.28959 	 -19.9916 	 
H 	 -54.5394 	 7.3045 	 -21.2266 	 
C 	 -54.8512 	 9.25026 	 -20.6085 	 
H 	 -53.8807 	 9.6459 	 -20.7146 	 
H 	 -55.3117 	 9.74741 	 -19.6588 	 
C 	 -55.7354 	 9.60606 	 -21.8074 	 
H 	 -56.5862 	 8.88911 	 -22.0225 	 
H 	 -55.1781 	 9.66105 	 -22.7873 	 
H 	 -56.1639 	 10.5488 	 -21.6499 	 
H 	 -56.338 	 1.62386 	 -19.8186 	 
H 	 -52.502 	 7.99245 	 -16.249 	 
