34

S 	 -53.7499 	 -38.7971 	 -75.7384 	 
C 	 -54.2069 	 -39.2711 	 -74.1007 	 
C 	 -54.3006 	 -40.5991 	 -73.946 	 
C 	 -53.7227 	 -41.2742 	 -75.1032 	 
C 	 -53.2505 	 -40.4275 	 -76.1218 	 
H 	 -53.7456 	 -42.2936 	 -75.3011 	 
C 	 -55.0103 	 -41.3055 	 -72.8194 	 
H 	 -54.7933 	 -40.7279 	 -71.9456 	 
H 	 -54.5584 	 -42.2692 	 -72.649 	 
C 	 -56.5172 	 -41.6152 	 -72.9836 	 
H 	 -56.9377 	 -40.6631 	 -73.421 	 
H 	 -56.7583 	 -42.278 	 -73.7705 	 
C 	 -57.1839 	 -42.0195 	 -71.6661 	 
H 	 -57.304 	 -41.1982 	 -70.9637 	 
H 	 -58.1953 	 -42.3982 	 -71.9666 	 
H 	 -56.5638 	 -42.7967 	 -71.2689 	 
S 	 -53.9169 	 -40.8559 	 -78.7908 	 
C 	 -52.7222 	 -41.6794 	 -79.7848 	 
C 	 -51.5097 	 -41.8703 	 -79.1914 	 
C 	 -51.5394 	 -41.5154 	 -77.7539 	 
C 	 -52.7491 	 -40.845 	 -77.4234 	 
H 	 -50.7262 	 -42.3956 	 -79.6669 	 
C 	 -50.3546 	 -41.6425 	 -76.8341 	 
H 	 -50.413 	 -40.8185 	 -76.0452 	 
H 	 -49.5493 	 -41.3563 	 -77.5134 	 
C 	 -50.21 	 -43.0777 	 -76.2194 	 
H 	 -51.0915 	 -43.2719 	 -75.6671 	 
H 	 -49.4395 	 -43.0767 	 -75.4858 	 
C 	 -50.1416 	 -44.1951 	 -77.2792 	 
H 	 -50.1726 	 -45.1131 	 -76.6597 	 
H 	 -49.2367 	 -44.212 	 -77.8537 	 
H 	 -50.9459 	 -44.2212 	 -77.9434 	 
H 	 -54.7465 	 -38.64 	 -73.4192 	 
H 	 -52.935 	 -42.0224 	 -80.7644 	 
