34

S 	 -105.44 	 42.1337 	 -92.631 	 
C 	 -104.429 	 40.6919 	 -92.5692 	 
C 	 -103.195 	 40.9862 	 -93.1013 	 
C 	 -103.018 	 42.4021 	 -93.2534 	 
C 	 -104.066 	 43.1364 	 -92.9189 	 
H 	 -102.023 	 42.8361 	 -93.4645 	 
C 	 -102.012 	 40.0068 	 -93.0413 	 
H 	 -102.1 	 39.3503 	 -92.2068 	 
H 	 -101.107 	 40.6617 	 -92.9144 	 
C 	 -101.827 	 39.1986 	 -94.3267 	 
H 	 -102.798 	 38.6266 	 -94.3478 	 
H 	 -101.991 	 39.865 	 -95.1876 	 
C 	 -100.479 	 38.3714 	 -94.3992 	 
H 	 -99.5856 	 39.0191 	 -94.558 	 
H 	 -100.323 	 37.7018 	 -93.5108 	 
H 	 -100.602 	 37.6518 	 -95.2719 	 
S 	 -105.265 	 45.202 	 -91.5575 	 
C 	 -104.927 	 46.8572 	 -92.007 	 
C 	 -104.032 	 46.9583 	 -93.0379 	 
C 	 -103.545 	 45.7131 	 -93.5406 	 
C 	 -104.187 	 44.6015 	 -92.901 	 
H 	 -103.976 	 47.9714 	 -93.3985 	 
C 	 -102.577 	 45.7162 	 -94.6358 	 
H 	 -101.789 	 44.9832 	 -94.4209 	 
H 	 -102.089 	 46.7291 	 -94.7386 	 
C 	 -103.206 	 45.3465 	 -96.0012 	 
H 	 -104.044 	 46.0449 	 -96.2357 	 
H 	 -103.859 	 44.4066 	 -95.9416 	 
C 	 -102.141 	 45.1058 	 -97.1145 	 
H 	 -101.58 	 46.0305 	 -97.2369 	 
H 	 -102.59 	 45.0296 	 -98.1172 	 
H 	 -101.59 	 44.2878 	 -96.8058 	 
H 	 -104.678 	 39.7113 	 -92.4298 	 
H 	 -105.485 	 47.7223 	 -91.671 	 
