34

S 	 -117.473 	 46.5143 	 -113.267 	 
C 	 -118.334 	 44.9945 	 -113.269 	 
C 	 -117.688 	 44.0439 	 -112.493 	 
C 	 -116.425 	 44.5016 	 -112.056 	 
C 	 -116.093 	 45.7635 	 -112.435 	 
H 	 -115.688 	 44.0926 	 -111.384 	 
C 	 -118.316 	 42.7051 	 -112.072 	 
H 	 -118.365 	 42.8629 	 -110.99 	 
H 	 -117.728 	 41.8607 	 -112.227 	 
C 	 -119.781 	 42.4145 	 -112.434 	 
H 	 -120.458 	 43.1066 	 -111.96 	 
H 	 -119.935 	 42.4412 	 -113.509 	 
C 	 -120.253 	 41.0858 	 -111.792 	 
H 	 -119.973 	 41.1386 	 -110.773 	 
H 	 -121.302 	 40.9752 	 -111.765 	 
H 	 -119.907 	 40.1898 	 -112.283 	 
S 	 -115.328 	 48.1881 	 -111.651 	 
C 	 -113.657 	 48.6349 	 -111.74 	 
C 	 -112.826 	 47.5214 	 -111.837 	 
C 	 -113.522 	 46.369 	 -112.118 	 
C 	 -114.902 	 46.5579 	 -112.158 	 
H 	 -111.737 	 47.6343 	 -111.626 	 
C 	 -112.745 	 45.1405 	 -112.363 	 
H 	 -113.397 	 44.2955 	 -112.464 	 
H 	 -112.167 	 44.923 	 -111.438 	 
C 	 -111.896 	 45.2951 	 -113.621 	 
H 	 -111.043 	 44.5899 	 -113.739 	 
H 	 -111.317 	 46.2503 	 -113.509 	 
C 	 -112.695 	 45.2268 	 -115.002 	 
H 	 -113.753 	 45.4024 	 -114.859 	 
H 	 -112.575 	 44.2534 	 -115.485 	 
H 	 -112.453 	 45.9229 	 -115.775 	 
H 	 -119.305 	 44.7653 	 -113.631 	 
H 	 -113.239 	 49.5935 	 -111.481 	 
