34

S 	 33.7371 	 1.57679 	 -117.208 	 
C 	 33.0218 	 2.52681 	 -118.498 	 
C 	 31.6447 	 2.36089 	 -118.498 	 
C 	 31.2481 	 1.41839 	 -117.505 	 
C 	 32.2661 	 0.958044 	 -116.676 	 
H 	 30.1964 	 0.95311 	 -117.424 	 
C 	 30.665 	 3.14953 	 -119.439 	 
H 	 31.3025 	 3.38374 	 -120.392 	 
H 	 30.3466 	 4.07923 	 -119.073 	 
C 	 29.4215 	 2.33462 	 -119.814 	 
H 	 29.7301 	 1.48447 	 -120.402 	 
H 	 28.8637 	 1.98239 	 -118.953 	 
C 	 28.3574 	 3.20565 	 -120.449 	 
H 	 27.4856 	 2.54411 	 -120.453 	 
H 	 28.0468 	 4.01691 	 -119.718 	 
H 	 28.5807 	 3.56793 	 -121.395 	 
S 	 32.0922 	 -1.79571 	 -116.27 	 
C 	 31.3535 	 -2.33027 	 -114.747 	 
C 	 31.481 	 -1.35713 	 -113.822 	 
C 	 31.7142 	 -0.0602028 	 -114.362 	 
C 	 32.0861 	 -0.0925577 	 -115.701 	 
H 	 31.1504 	 -1.58628 	 -112.793 	 
C 	 31.5117 	 1.14712 	 -113.418 	 
H 	 32.3743 	 1.76015 	 -113.378 	 
H 	 31.351 	 0.72073 	 -112.389 	 
C 	 30.3663 	 2.10689 	 -113.779 	 
H 	 30.4749 	 2.49453 	 -114.766 	 
H 	 30.3061 	 3.00729 	 -113.23 	 
C 	 29.0566 	 1.31358 	 -113.791 	 
H 	 28.9444 	 0.818334 	 -112.84 	 
H 	 29.107 	 0.49815 	 -114.515 	 
H 	 28.1805 	 1.86863 	 -114.042 	 
H 	 33.4986 	 3.17952 	 -119.252 	 
H 	 31.0698 	 -3.36325 	 -114.427 	 
