34

S 	 -49.5383 	 20.3477 	 29.349 	 
C 	 -49.6866 	 19.2071 	 28.0614 	 
C 	 -50.6493 	 18.2301 	 28.3026 	 
C 	 -51.3588 	 18.5332 	 29.5251 	 
C 	 -50.8701 	 19.6748 	 30.1681 	 
H 	 -52.1871 	 18.0493 	 29.9025 	 
C 	 -51.0601 	 17.137 	 27.3431 	 
H 	 -51.7106 	 16.3 	 27.7675 	 
H 	 -50.1687 	 16.5982 	 27.0245 	 
C 	 -51.7426 	 17.6689 	 26.0926 	 
H 	 -51.0547 	 18.1726 	 25.4487 	 
H 	 -51.9229 	 16.7798 	 25.464 	 
C 	 -53.0012 	 18.5235 	 26.3255 	 
H 	 -53.6319 	 17.9346 	 26.9365 	 
H 	 -52.7803 	 19.4427 	 26.872 	 
H 	 -53.5632 	 18.6453 	 25.4545 	 
S 	 -50.4502 	 20.2656 	 32.7377 	 
C 	 -51.5242 	 21.253 	 33.6633 	 
C 	 -52.7008 	 21.4613 	 33 	 
C 	 -52.7097 	 20.9419 	 31.6606 	 
C 	 -51.4775 	 20.3917 	 31.3206 	 
H 	 -53.517 	 22.0397 	 33.453 	 
C 	 -53.8676 	 21.1408 	 30.7358 	 
H 	 -53.3895 	 21.3382 	 29.7625 	 
H 	 -54.2051 	 22.1033 	 30.9983 	 
C 	 -55.0102 	 20.1567 	 30.5765 	 
H 	 -54.4884 	 19.1589 	 30.5623 	 
H 	 -55.4977 	 20.2841 	 29.6076 	 
C 	 -56.1354 	 20.2253 	 31.6255 	 
H 	 -57.0058 	 19.8506 	 31.1268 	 
H 	 -56.3173 	 21.2547 	 32.0249 	 
H 	 -55.9746 	 19.5182 	 32.4739 	 
H 	 -49.0361 	 19.0951 	 27.19 	 
H 	 -51.2376 	 21.7444 	 34.6374 	 
