34

S 	 -52.6425 	 -57.7732 	 -83.1157 	 
C 	 -52.7102 	 -56.1641 	 -82.4141 	 
C 	 -54.039 	 -55.7099 	 -82.2859 	 
C 	 -54.9729 	 -56.6475 	 -82.773 	 
C 	 -54.3394 	 -57.7911 	 -83.2131 	 
H 	 -56.0842 	 -56.5289 	 -82.829 	 
C 	 -54.4623 	 -54.3454 	 -81.6919 	 
H 	 -55.0494 	 -53.907 	 -82.4323 	 
H 	 -53.7163 	 -53.612 	 -81.6558 	 
C 	 -55.0513 	 -54.3349 	 -80.2681 	 
H 	 -55.6227 	 -55.2611 	 -80.1658 	 
H 	 -54.2405 	 -54.2941 	 -79.4898 	 
C 	 -55.9712 	 -53.1329 	 -79.9539 	 
H 	 -55.4957 	 -52.2289 	 -79.7256 	 
H 	 -56.6914 	 -53.0586 	 -80.8178 	 
H 	 -56.6149 	 -53.4179 	 -79.1465 	 
S 	 -55.1944 	 -60.1777 	 -82.2404 	 
C 	 -56.4519 	 -61.1061 	 -83.0183 	 
C 	 -56.7788 	 -60.5054 	 -84.2052 	 
C 	 -56.112 	 -59.2589 	 -84.4456 	 
C 	 -55.0352 	 -58.9852 	 -83.5464 	 
H 	 -57.5018 	 -60.9602 	 -84.8014 	 
C 	 -56.3958 	 -58.3463 	 -85.6318 	 
H 	 -56.2315 	 -57.2991 	 -85.3466 	 
H 	 -57.4899 	 -58.5611 	 -85.7702 	 
C 	 -55.6618 	 -58.8676 	 -86.9381 	 
H 	 -55.9717 	 -58.2299 	 -87.8577 	 
H 	 -56.056 	 -59.8131 	 -87.2238 	 
C 	 -54.1448 	 -59.0755 	 -86.8658 	 
H 	 -53.6017 	 -58.1745 	 -86.4718 	 
H 	 -53.6098 	 -59.1931 	 -87.7908 	 
H 	 -53.9802 	 -59.9216 	 -86.1759 	 
H 	 -51.8008 	 -55.654 	 -82.1632 	 
H 	 -56.7801 	 -62.1052 	 -82.7926 	 
