34

S 	 -88.9692 	 -7.6165 	 -119.535 	 
C 	 -88.0337 	 -9.08269 	 -119.834 	 
C 	 -88.7968 	 -10.2224 	 -119.92 	 
C 	 -90.1741 	 -9.91793 	 -119.75 	 
C 	 -90.4691 	 -8.58617 	 -119.387 	 
H 	 -91.0522 	 -10.508 	 -120.012 	 
C 	 -88.3963 	 -11.7107 	 -120.183 	 
H 	 -87.8435 	 -11.6512 	 -121.09 	 
H 	 -89.3469 	 -12.3287 	 -120.418 	 
C 	 -87.5512 	 -12.3655 	 -119.081 	 
H 	 -86.6502 	 -11.7006 	 -118.952 	 
H 	 -88.1006 	 -12.4848 	 -118.108 	 
C 	 -87.0924 	 -13.7921 	 -119.371 	 
H 	 -86.5413 	 -13.771 	 -120.353 	 
H 	 -86.4989 	 -14.1287 	 -118.49 	 
H 	 -87.9184 	 -14.49 	 -119.4 	 
S 	 -92.123 	 -6.37454 	 -119.734 	 
C 	 -93.6953 	 -6.34373 	 -119.041 	 
C 	 -93.9639 	 -7.55213 	 -118.479 	 
C 	 -92.9227 	 -8.51553 	 -118.442 	 
C 	 -91.7703 	 -7.955 	 -119.01 	 
H 	 -94.9623 	 -7.58748 	 -118.06 	 
C 	 -93.1175 	 -9.92664 	 -117.929 	 
H 	 -93.5403 	 -9.8248 	 -116.927 	 
H 	 -92.1327 	 -10.3448 	 -117.67 	 
C 	 -93.783 	 -10.9033 	 -118.826 	 
H 	 -93.3095 	 -10.8536 	 -119.804 	 
H 	 -94.8022 	 -10.64 	 -118.995 	 
C 	 -93.8403 	 -12.4233 	 -118.381 	 
H 	 -92.8954 	 -12.9588 	 -118.223 	 
H 	 -94.305 	 -13.0448 	 -119.187 	 
H 	 -94.4312 	 -12.5013 	 -117.412 	 
H 	 -86.9921 	 -9.27281 	 -120.045 	 
H 	 -94.4323 	 -5.53325 	 -119.145 	 
