34

S 	 -106.828 	 62.0072 	 -12.2652 	 
C 	 -106.696 	 62.753 	 -13.8348 	 
C 	 -106.052 	 61.9647 	 -14.7405 	 
C 	 -105.609 	 60.7273 	 -14.1451 	 
C 	 -106.137 	 60.5575 	 -12.8879 	 
H 	 -105.016 	 59.9757 	 -14.619 	 
C 	 -105.54 	 62.2717 	 -16.2218 	 
H 	 -104.426 	 62.0235 	 -16.2749 	 
H 	 -105.763 	 63.4251 	 -16.331 	 
C 	 -106.256 	 61.523 	 -17.3029 	 
H 	 -105.886 	 61.5758 	 -18.2993 	 
H 	 -106.244 	 60.4902 	 -17.0466 	 
C 	 -107.726 	 62.0513 	 -17.3043 	 
H 	 -108.451 	 61.3049 	 -17.4677 	 
H 	 -107.98 	 62.3312 	 -16.3054 	 
H 	 -107.845 	 63.0284 	 -17.8265 	 
S 	 -105.563 	 59.233 	 -10.4445 	 
C 	 -106.022 	 57.5265 	 -10.2678 	 
C 	 -106.467 	 57.0052 	 -11.4885 	 
C 	 -106.468 	 57.9625 	 -12.5116 	 
C 	 -106.12 	 59.2895 	 -12.1288 	 
H 	 -106.687 	 55.9245 	 -11.6548 	 
C 	 -106.866 	 57.5516 	 -13.9039 	 
H 	 -107.212 	 58.3618 	 -14.6328 	 
H 	 -107.833 	 56.9379 	 -13.8519 	 
C 	 -105.759 	 56.611 	 -14.5917 	 
H 	 -106.311 	 55.9733 	 -15.3001 	 
H 	 -105.428 	 55.9057 	 -13.8777 	 
C 	 -104.498 	 57.2113 	 -15.1044 	 
H 	 -104.648 	 58.2143 	 -15.5492 	 
H 	 -104.062 	 56.6029 	 -15.9437 	 
H 	 -103.81 	 57.3162 	 -14.3233 	 
H 	 -106.982 	 63.7279 	 -14.027 	 
H 	 -105.687 	 56.8755 	 -9.45123 	 
