34

S 	 -119.281 	 32.9617 	 -113.096 	 
C 	 -119.262 	 31.5707 	 -114.159 	 
C 	 -118.81 	 31.8677 	 -115.408 	 
C 	 -118.538 	 33.3012 	 -115.465 	 
C 	 -118.869 	 34.0715 	 -114.394 	 
H 	 -118.12 	 33.7997 	 -116.349 	 
C 	 -118.715 	 30.9222 	 -116.635 	 
H 	 -117.874 	 30.2295 	 -116.55 	 
H 	 -118.504 	 31.5269 	 -117.505 	 
C 	 -119.996 	 30.0222 	 -116.872 	 
H 	 -120.345 	 29.7028 	 -115.923 	 
H 	 -120.825 	 30.703 	 -117.211 	 
C 	 -119.749 	 28.7952 	 -117.827 	 
H 	 -119.171 	 28.0456 	 -117.347 	 
H 	 -120.623 	 28.4098 	 -118.288 	 
H 	 -119.065 	 29.1001 	 -118.623 	 
S 	 -117.02 	 35.9367 	 -113.456 	 
C 	 -117.421 	 37.6803 	 -113.551 	 
C 	 -118.666 	 37.9019 	 -114.107 	 
C 	 -119.305 	 36.6924 	 -114.44 	 
C 	 -118.605 	 35.4877 	 -114.112 	 
H 	 -118.928 	 38.9134 	 -114.29 	 
C 	 -120.607 	 36.5945 	 -115.188 	 
H 	 -120.443 	 36.2511 	 -116.183 	 
H 	 -120.857 	 37.6378 	 -115.295 	 
C 	 -121.745 	 35.7998 	 -114.46 	 
H 	 -121.917 	 36.192 	 -113.488 	 
H 	 -121.482 	 34.7886 	 -114.412 	 
C 	 -123.091 	 36.0673 	 -115.103 	 
H 	 -123.061 	 35.7979 	 -116.138 	 
H 	 -123.353 	 37.0772 	 -115.116 	 
H 	 -123.752 	 35.498 	 -114.534 	 
H 	 -119.471 	 30.532 	 -113.835 	 
H 	 -116.809 	 38.4658 	 -113.262 	 
