34

S 	 -41.9024 	 14.1192 	 21.3148 	 
C 	 -42.9911 	 15.445 	 21.6686 	 
C 	 -43.9662 	 15.5408 	 20.6803 	 
C 	 -43.8866 	 14.446 	 19.7282 	 
C 	 -42.7704 	 13.5854 	 19.8451 	 
H 	 -44.5962 	 14.2296 	 18.9469 	 
C 	 -45.1166 	 16.4682 	 20.6426 	 
H 	 -45.7112 	 16.0993 	 19.7702 	 
H 	 -44.6979 	 17.4392 	 20.4632 	 
C 	 -45.9638 	 16.6061 	 21.9419 	 
H 	 -46.3279 	 15.5909 	 22.1763 	 
H 	 -45.4196 	 16.7629 	 22.9007 	 
C 	 -47.057 	 17.7187 	 21.7132 	 
H 	 -47.7945 	 17.6742 	 20.8304 	 
H 	 -47.5353 	 17.8341 	 22.6938 	 
H 	 -46.4663 	 18.6967 	 21.4958 	 
S 	 -42.3839 	 10.8826 	 20.0119 	 
C 	 -42.0009 	 10.0515 	 18.5443 	 
C 	 -41.8239 	 10.8717 	 17.4839 	 
C 	 -42.1732 	 12.2091 	 17.7284 	 
C 	 -42.5172 	 12.3278 	 19.049 	 
H 	 -41.3744 	 10.5749 	 16.5819 	 
C 	 -42.1866 	 13.3326 	 16.6858 	 
H 	 -42.6747 	 14.1844 	 17.163 	 
H 	 -42.7999 	 12.8368 	 15.9779 	 
C 	 -40.7194 	 13.6231 	 16.1606 	 
H 	 -40.3652 	 12.7049 	 15.7018 	 
H 	 -40.0161 	 13.7316 	 16.9789 	 
C 	 -40.5974 	 14.706 	 15.0813 	 
H 	 -40.9845 	 14.115 	 14.2053 	 
H 	 -39.5766 	 14.9779 	 14.9722 	 
H 	 -41.1593 	 15.6324 	 15.2276 	 
H 	 -42.9885 	 16.0039 	 22.5858 	 
H 	 -41.739 	 9.03196 	 18.5733 	 
