34

S 	 -39.3267 	 -51.2499 	 -76.6605 	 
C 	 -37.9449 	 -51.5375 	 -77.7411 	 
C 	 -37.7506 	 -50.5232 	 -78.6943 	 
C 	 -38.6814 	 -49.4698 	 -78.4785 	 
C 	 -39.625 	 -49.7023 	 -77.5223 	 
H 	 -38.713 	 -48.5991 	 -79.0901 	 
C 	 -36.6669 	 -50.4966 	 -79.78 	 
H 	 -36.9232 	 -51.3549 	 -80.3944 	 
H 	 -35.7234 	 -50.8028 	 -79.43 	 
C 	 -36.5221 	 -49.2772 	 -80.6468 	 
H 	 -36.1065 	 -49.6261 	 -81.5891 	 
H 	 -37.5215 	 -48.9051 	 -80.9199 	 
C 	 -35.4903 	 -48.3202 	 -80.0508 	 
H 	 -35.4519 	 -47.2842 	 -80.4466 	 
H 	 -35.5877 	 -48.1451 	 -79.0194 	 
H 	 -34.4259 	 -48.6782 	 -80.2687 	 
S 	 -40.9084 	 -48.5538 	 -75.3836 	 
C 	 -41.8727 	 -47.1473 	 -75.6242 	 
C 	 -41.9843 	 -46.9106 	 -76.9771 	 
C 	 -41.2903 	 -47.8073 	 -77.8686 	 
C 	 -40.5508 	 -48.6769 	 -77.0877 	 
H 	 -42.6602 	 -46.1141 	 -77.2788 	 
C 	 -41.4117 	 -47.7715 	 -79.4138 	 
H 	 -41.855 	 -48.7446 	 -79.8075 	 
H 	 -40.4518 	 -47.7873 	 -79.8152 	 
C 	 -42.2002 	 -46.6137 	 -79.9224 	 
H 	 -41.7914 	 -45.6625 	 -79.5945 	 
H 	 -43.2438 	 -46.7118 	 -79.5423 	 
C 	 -42.0491 	 -46.6585 	 -81.4327 	 
H 	 -42.5922 	 -45.826 	 -81.9145 	 
H 	 -42.3699 	 -47.5866 	 -81.8907 	 
H 	 -40.9224 	 -46.7068 	 -81.6208 	 
H 	 -37.189 	 -52.3116 	 -77.7475 	 
H 	 -42.3155 	 -46.5842 	 -74.7299 	 
