34

S 	 -79.3743 	 -21.2752 	 -53.1175 	 
C 	 -79.1596 	 -20.3991 	 -51.5752 	 
C 	 -78.9564 	 -21.3291 	 -50.5861 	 
C 	 -78.6293 	 -22.6229 	 -51.0298 	 
C 	 -78.7566 	 -22.7874 	 -52.4058 	 
H 	 -78.2831 	 -23.3409 	 -50.4374 	 
C 	 -78.9542 	 -20.9138 	 -49.0919 	 
H 	 -79.7554 	 -20.1519 	 -48.9867 	 
H 	 -78.0813 	 -20.257 	 -48.8469 	 
C 	 -79.062 	 -22.0794 	 -48.1184 	 
H 	 -78.1893 	 -22.7231 	 -48.1914 	 
H 	 -78.9405 	 -21.5799 	 -47.1297 	 
C 	 -80.3955 	 -22.7832 	 -48.1242 	 
H 	 -80.218 	 -23.7353 	 -47.7281 	 
H 	 -81.0935 	 -22.2727 	 -47.5388 	 
H 	 -80.859 	 -22.88 	 -49.152 	 
S 	 -79.9943 	 -24.31 	 -54.3708 	 
C 	 -79.4492 	 -25.9546 	 -54.6085 	 
C 	 -78.3353 	 -26.2279 	 -53.8691 	 
C 	 -77.8487 	 -25.1673 	 -53.0529 	 
C 	 -78.6918 	 -24.0496 	 -53.1162 	 
H 	 -77.82 	 -27.2191 	 -54.1109 	 
C 	 -76.7461 	 -25.2793 	 -52.1073 	 
H 	 -76.7031 	 -26.3001 	 -51.7092 	 
H 	 -76.9373 	 -24.7561 	 -51.2319 	 
C 	 -75.2934 	 -24.9832 	 -52.5341 	 
H 	 -74.9616 	 -25.8274 	 -53.17 	 
H 	 -74.7072 	 -25.0446 	 -51.6075 	 
C 	 -75.173 	 -23.4884 	 -52.9888 	 
H 	 -75.9783 	 -23.2993 	 -53.7331 	 
H 	 -74.2587 	 -23.2741 	 -53.4848 	 
H 	 -75.4183 	 -22.6772 	 -52.2748 	 
H 	 -79.3122 	 -19.3162 	 -51.4378 	 
H 	 -79.8958 	 -26.6821 	 -55.2718 	 
