34

S 	 -33.4217 	 -35.8443 	 -86.1762 	 
C 	 -32.5626 	 -34.401 	 -85.8756 	 
C 	 -31.2331 	 -34.6122 	 -85.982 	 
C 	 -30.9381 	 -35.9379 	 -86.4953 	 
C 	 -32.0121 	 -36.6704 	 -86.834 	 
H 	 -29.9853 	 -36.406 	 -86.7944 	 
C 	 -30.1533 	 -33.6323 	 -85.7145 	 
H 	 -29.4742 	 -34.0065 	 -85.0167 	 
H 	 -30.645 	 -32.7108 	 -85.3608 	 
C 	 -29.2251 	 -33.156 	 -86.9521 	 
H 	 -29.0272 	 -34.1245 	 -87.4524 	 
H 	 -29.9523 	 -32.5735 	 -87.5042 	 
C 	 -28.0706 	 -32.2787 	 -86.5221 	 
H 	 -27.5171 	 -31.914 	 -87.4296 	 
H 	 -28.4153 	 -31.4261 	 -85.9544 	 
H 	 -27.4138 	 -32.7784 	 -85.7963 	 
S 	 -33.2383 	 -39.1025 	 -86.6993 	 
C 	 -32.8955 	 -40.407 	 -87.8415 	 
C 	 -31.6899 	 -40.1143 	 -88.4322 	 
C 	 -31.1353 	 -38.8425 	 -88.1134 	 
C 	 -31.9451 	 -38.0522 	 -87.2644 	 
H 	 -31.1885 	 -40.8296 	 -89.1025 	 
C 	 -29.9265 	 -38.3875 	 -88.912 	 
H 	 -29.5733 	 -39.1842 	 -89.5684 	 
H 	 -29.0741 	 -38.2672 	 -88.2593 	 
C 	 -30.192 	 -37.1215 	 -89.8379 	 
H 	 -30.6252 	 -36.375 	 -89.2213 	 
H 	 -30.9921 	 -37.3521 	 -90.5155 	 
C 	 -28.9661 	 -36.5609 	 -90.5498 	 
H 	 -28.7161 	 -37.088 	 -91.4497 	 
H 	 -28.1324 	 -36.44 	 -89.8585 	 
H 	 -29.2109 	 -35.4848 	 -90.7736 	 
H 	 -33.0241 	 -33.5771 	 -85.4745 	 
H 	 -33.4329 	 -41.329 	 -87.9605 	 
