34

S 	 -73.9526 	 4.98193 	 -108.927 	 
C 	 -74.676 	 5.58736 	 -107.44 	 
C 	 -73.8285 	 6.38767 	 -106.728 	 
C 	 -72.5642 	 6.54497 	 -107.341 	 
C 	 -72.5558 	 5.95954 	 -108.598 	 
H 	 -71.6114 	 7.06545 	 -107.058 	 
C 	 -74.1223 	 7.14562 	 -105.415 	 
H 	 -73.2681 	 7.74365 	 -105.086 	 
H 	 -74.2517 	 6.2765 	 -104.671 	 
C 	 -75.4395 	 7.92036 	 -105.357 	 
H 	 -75.3135 	 8.79918 	 -105.929 	 
H 	 -76.2565 	 7.32856 	 -105.908 	 
C 	 -75.986 	 8.2995 	 -104.028 	 
H 	 -75.3866 	 8.97711 	 -103.397 	 
H 	 -76.9399 	 8.76397 	 -104.203 	 
H 	 -76.0801 	 7.39886 	 -103.399 	 
S 	 -70.8817 	 4.23309 	 -110.045 	 
C 	 -69.5397 	 4.89191 	 -110.925 	 
C 	 -69.2558 	 6.17867 	 -110.573 	 
C 	 -70.2883 	 6.78766 	 -109.811 	 
C 	 -71.2713 	 5.86281 	 -109.391 	 
H 	 -68.3324 	 6.64246 	 -110.884 	 
C 	 -70.143 	 8.25995 	 -109.308 	 
H 	 -70.9944 	 8.6061 	 -108.738 	 
H 	 -70.0844 	 8.84274 	 -110.235 	 
C 	 -68.9159 	 8.3178 	 -108.393 	 
H 	 -67.9941 	 7.85236 	 -108.757 	 
H 	 -69.1226 	 7.96331 	 -107.386 	 
C 	 -68.6697 	 9.82448 	 -108.112 	 
H 	 -69.3967 	 10.0377 	 -107.291 	 
H 	 -68.7416 	 10.5465 	 -108.895 	 
H 	 -67.6693 	 10.0085 	 -107.695 	 
H 	 -75.6865 	 5.3889 	 -107.05 	 
H 	 -68.8228 	 4.27175 	 -111.455 	 
