34

S 	 49.3048 	 -24.8572 	 -117.679 	 
C 	 48.2237 	 -25.7831 	 -116.703 	 
C 	 48.1847 	 -25.3328 	 -115.397 	 
C 	 49.1302 	 -24.305 	 -115.161 	 
C 	 49.7259 	 -23.8703 	 -116.301 	 
H 	 49.4907 	 -23.7913 	 -114.249 	 
C 	 47.3333 	 -25.8467 	 -114.214 	 
H 	 47.7561 	 -25.4618 	 -113.271 	 
H 	 47.5941 	 -26.9465 	 -114.076 	 
C 	 45.8244 	 -25.6217 	 -114.191 	 
H 	 45.2943 	 -26.0708 	 -114.993 	 
H 	 45.429 	 -25.8678 	 -113.211 	 
C 	 45.3725 	 -24.14 	 -114.489 	 
H 	 44.2731 	 -23.9175 	 -114.354 	 
H 	 45.931 	 -23.5558 	 -113.693 	 
H 	 45.7098 	 -23.7809 	 -115.462 	 
S 	 52.2993 	 -23.2382 	 -117.053 	 
C 	 52.8352 	 -21.6718 	 -116.819 	 
C 	 51.9097 	 -20.8681 	 -116.146 	 
C 	 50.6475 	 -21.5093 	 -115.863 	 
C 	 50.7071 	 -22.8024 	 -116.398 	 
H 	 51.9903 	 -19.7963 	 -116.048 	 
C 	 49.4953 	 -20.9068 	 -115.096 	 
H 	 49.7665 	 -20.2145 	 -114.359 	 
H 	 49.0385 	 -21.6644 	 -114.555 	 
C 	 48.4321 	 -20.2548 	 -116.022 	 
H 	 48.2244 	 -20.94 	 -116.772 	 
H 	 48.8269 	 -19.3777 	 -116.448 	 
C 	 47.0777 	 -19.9226 	 -115.227 	 
H 	 46.3932 	 -19.2775 	 -115.75 	 
H 	 47.2894 	 -19.3667 	 -114.377 	 
H 	 46.4616 	 -20.8648 	 -115.08 	 
H 	 47.6748 	 -26.6127 	 -117.163 	 
H 	 53.8381 	 -21.2314 	 -116.933 	 
