34

S 	 -93.614 	 14.7838 	 -117.62 	 
C 	 -92.0982 	 14.0499 	 -117.247 	 
C 	 -91.954 	 12.8227 	 -117.854 	 
C 	 -93.0638 	 12.5948 	 -118.788 	 
C 	 -93.9855 	 13.6339 	 -118.777 	 
H 	 -93.1806 	 11.7047 	 -119.382 	 
C 	 -90.8848 	 11.8049 	 -117.662 	 
H 	 -90.0255 	 12.3852 	 -117.393 	 
H 	 -90.8482 	 11.2017 	 -118.569 	 
C 	 -91.177 	 10.7174 	 -116.521 	 
H 	 -90.2149 	 10.2563 	 -116.106 	 
H 	 -91.3824 	 11.366 	 -115.673 	 
C 	 -92.2856 	 9.72532 	 -116.823 	 
H 	 -92.6998 	 9.19435 	 -115.929 	 
H 	 -93.1716 	 10.2219 	 -117.332 	 
H 	 -91.9738 	 9.01987 	 -117.642 	 
S 	 -96.8003 	 13.6127 	 -119.158 	 
C 	 -97.3695 	 14.1386 	 -120.722 	 
C 	 -96.3698 	 14.7044 	 -121.502 	 
C 	 -95.1285 	 14.6921 	 -120.767 	 
C 	 -95.1224 	 13.8784 	 -119.637 	 
H 	 -96.5384 	 15.1639 	 -122.508 	 
C 	 -93.8991 	 15.1776 	 -121.459 	 
H 	 -93.9455 	 14.87 	 -122.528 	 
H 	 -92.9602 	 14.7434 	 -120.986 	 
C 	 -93.5977 	 16.7697 	 -121.505 	 
H 	 -93.5315 	 17.0784 	 -120.428 	 
H 	 -94.4718 	 17.2098 	 -121.983 	 
C 	 -92.2065 	 17.049 	 -122.178 	 
H 	 -91.2848 	 16.6957 	 -121.702 	 
H 	 -92.0391 	 18.1631 	 -122.152 	 
H 	 -92.3091 	 16.7272 	 -123.266 	 
H 	 -91.3312 	 14.4496 	 -116.58 	 
H 	 -98.3582 	 14.1927 	 -121.05 	 
