34

S 	 -133.654 	 60.1906 	 -62.3283 	 
C 	 -134.128 	 61.7832 	 -62.2632 	 
C 	 -133.75 	 62.3983 	 -61.129 	 
C 	 -132.791 	 61.566 	 -60.4389 	 
C 	 -132.571 	 60.3494 	 -61.0075 	 
H 	 -132.177 	 61.8642 	 -59.5543 	 
C 	 -133.999 	 63.8442 	 -60.6881 	 
H 	 -133.703 	 64.5636 	 -61.4865 	 
H 	 -133.439 	 64.0468 	 -59.7814 	 
C 	 -135.508 	 63.9871 	 -60.3651 	 
H 	 -135.799 	 63.157 	 -59.7269 	 
H 	 -135.61 	 64.8589 	 -59.6919 	 
C 	 -136.399 	 64.4653 	 -61.511 	 
H 	 -136.55 	 63.6867 	 -62.2628 	 
H 	 -137.307 	 64.9921 	 -61.204 	 
H 	 -135.961 	 65.2191 	 -62.2193 	 
S 	 -132.511 	 57.663 	 -60.433 	 
C 	 -131.082 	 56.8268 	 -59.998 	 
C 	 -130.049 	 57.7295 	 -59.7912 	 
C 	 -130.44 	 59.0826 	 -60.0134 	 
C 	 -131.754 	 59.2345 	 -60.5336 	 
H 	 -129.067 	 57.4316 	 -59.4158 	 
C 	 -129.501 	 60.1706 	 -59.7192 	 
H 	 -129.842 	 60.8185 	 -58.7777 	 
H 	 -129.62 	 60.8982 	 -60.4747 	 
C 	 -127.971 	 59.8776 	 -59.5716 	 
H 	 -127.656 	 59.143 	 -58.7946 	 
H 	 -127.439 	 60.7824 	 -59.2458 	 
C 	 -127.297 	 59.39 	 -60.8282 	 
H 	 -126.23 	 59.5073 	 -60.7926 	 
H 	 -127.671 	 60.026 	 -61.6905 	 
H 	 -127.593 	 58.3925 	 -61.1679 	 
H 	 -134.677 	 62.3548 	 -63.0306 	 
H 	 -130.988 	 55.7251 	 -59.9654 	 
