34

S 	 -27.1831 	 -7.21142 	 -1.19848 	 
C 	 -26.5765 	 -8.7552 	 -0.565446 	 
C 	 -27.5493 	 -9.75708 	 -0.782258 	 
C 	 -28.6444 	 -9.30711 	 -1.58805 	 
C 	 -28.737 	 -7.9511 	 -1.75952 	 
H 	 -29.4987 	 -9.88827 	 -1.93056 	 
C 	 -27.5129 	 -11.0878 	 -0.0925325 	 
H 	 -28.2474 	 -10.8642 	 0.712616 	 
H 	 -26.5762 	 -11.2748 	 0.433883 	 
C 	 -27.8341 	 -12.2735 	 -0.952475 	 
H 	 -28.7058 	 -12.1665 	 -1.51868 	 
H 	 -27.062 	 -12.3776 	 -1.72888 	 
C 	 -28.0478 	 -13.5944 	 -0.250033 	 
H 	 -28.8975 	 -13.6337 	 0.436586 	 
H 	 -28.1577 	 -14.4524 	 -0.836423 	 
H 	 -27.2089 	 -13.7664 	 0.432189 	 
S 	 -29.3086 	 -5.79456 	 -3.40208 	 
C 	 -30.9175 	 -5.52219 	 -3.99477 	 
C 	 -31.8145 	 -6.45945 	 -3.45294 	 
C 	 -31.1222 	 -7.45248 	 -2.66997 	 
C 	 -29.7649 	 -7.2816 	 -2.5793 	 
H 	 -32.8848 	 -6.43825 	 -3.61328 	 
C 	 -31.9156 	 -8.46365 	 -1.90822 	 
H 	 -32.7162 	 -7.89976 	 -1.40063 	 
H 	 -31.2132 	 -8.71359 	 -1.132 	 
C 	 -32.3727 	 -9.66402 	 -2.58779 	 
H 	 -31.48 	 -10.3158 	 -2.74475 	 
H 	 -32.756 	 -9.47293 	 -3.59906 	 
C 	 -33.322 	 -10.57 	 -1.80226 	 
H 	 -34.2668 	 -10.2038 	 -1.32336 	 
H 	 -32.7407 	 -11.1252 	 -1.10537 	 
H 	 -33.6188 	 -11.2821 	 -2.55983 	 
H 	 -25.7373 	 -8.84186 	 0.185204 	 
H 	 -31.2498 	 -4.60815 	 -4.62925 	 
