34

S 	 -115.045 	 37.1661 	 -117.699 	 
C 	 -115.217 	 35.4586 	 -118.025 	 
C 	 -114.859 	 34.6727 	 -116.941 	 
C 	 -114.846 	 35.4417 	 -115.756 	 
C 	 -115.027 	 36.7808 	 -115.985 	 
H 	 -114.705 	 35.0631 	 -114.752 	 
C 	 -114.674 	 33.1983 	 -116.926 	 
H 	 -114.861 	 32.7997 	 -117.946 	 
H 	 -115.418 	 32.6751 	 -116.313 	 
C 	 -113.257 	 32.6867 	 -116.447 	 
H 	 -112.348 	 32.8775 	 -117.094 	 
H 	 -113.084 	 33.1117 	 -115.434 	 
C 	 -113.352 	 31.127 	 -116.281 	 
H 	 -113.24 	 30.67 	 -117.308 	 
H 	 -112.628 	 30.6991 	 -115.657 	 
H 	 -114.355 	 30.9246 	 -115.838 	 
S 	 -113.618 	 38.5973 	 -114.336 	 
C 	 -114.568 	 39.381 	 -113.086 	 
C 	 -115.859 	 38.9905 	 -113.134 	 
C 	 -116.152 	 37.9359 	 -114.044 	 
C 	 -115.116 	 37.7426 	 -114.895 	 
H 	 -116.564 	 39.4438 	 -112.443 	 
C 	 -117.503 	 37.1856 	 -114.086 	 
H 	 -117.928 	 37.1167 	 -113.118 	 
H 	 -117.336 	 36.1452 	 -114.241 	 
C 	 -118.622 	 37.7562 	 -115.067 	 
H 	 -118.133 	 38.2807 	 -115.874 	 
H 	 -119.149 	 38.5103 	 -114.455 	 
C 	 -119.47 	 36.6293 	 -115.593 	 
H 	 -120.536 	 36.9836 	 -115.772 	 
H 	 -119.618 	 35.8647 	 -114.782 	 
H 	 -119.034 	 36.0722 	 -116.406 	 
H 	 -115.466 	 35.0497 	 -118.992 	 
H 	 -114.118 	 40.1945 	 -112.41 	 
