34

S 	 -110.224 	 73.1859 	 -9.98741 	 
C 	 -108.811 	 73.6166 	 -10.8822 	 
C 	 -107.789 	 72.7134 	 -10.5502 	 
C 	 -108.294 	 71.5453 	 -9.79726 	 
C 	 -109.646 	 71.6137 	 -9.51123 	 
H 	 -107.729 	 70.6943 	 -9.4554 	 
C 	 -106.338 	 72.9636 	 -10.9138 	 
H 	 -106.34 	 73.3408 	 -11.8948 	 
H 	 -105.854 	 72.0045 	 -10.8392 	 
C 	 -105.592 	 73.9664 	 -10.057 	 
H 	 -106.167 	 74.8609 	 -9.84494 	 
H 	 -105.424 	 73.4039 	 -9.12034 	 
C 	 -104.185 	 74.5178 	 -10.5078 	 
H 	 -104.256 	 75.131 	 -11.4084 	 
H 	 -103.74 	 75.1544 	 -9.69585 	 
H 	 -103.451 	 73.6842 	 -10.6805 	 
S 	 -111.433 	 71.2715 	 -7.44873 	 
C 	 -112.368 	 69.7812 	 -7.28413 	 
C 	 -111.846 	 68.8513 	 -8.13177 	 
C 	 -110.835 	 69.3331 	 -9.03887 	 
C 	 -110.461 	 70.644 	 -8.75376 	 
H 	 -112.291 	 67.8616 	 -8.07289 	 
C 	 -110.346 	 68.3177 	 -10.035 	 
H 	 -110.138 	 67.3233 	 -9.70249 	 
H 	 -109.303 	 68.6827 	 -10.2667 	 
C 	 -111.173 	 68.1197 	 -11.3512 	 
H 	 -110.548 	 67.483 	 -12.0137 	 
H 	 -111.315 	 69.0813 	 -11.8765 	 
C 	 -112.518 	 67.4767 	 -11.0594 	 
H 	 -112.338 	 66.5801 	 -10.4128 	 
H 	 -113.213 	 67.2204 	 -11.8607 	 
H 	 -113.097 	 67.9827 	 -10.2788 	 
H 	 -108.572 	 74.5705 	 -11.3412 	 
H 	 -113.221 	 69.5831 	 -6.61633 	 
