34

S 	 -108.645 	 53.8817 	 -100.727 	 
C 	 -110.191 	 53.1789 	 -100.998 	 
C 	 -111.081 	 54.1009 	 -101.48 	 
C 	 -110.559 	 55.3979 	 -101.728 	 
C 	 -109.247 	 55.4603 	 -101.347 	 
H 	 -111.048 	 56.2743 	 -102.062 	 
C 	 -112.592 	 53.8372 	 -101.52 	 
H 	 -113.09 	 54.23 	 -100.579 	 
H 	 -112.717 	 52.7751 	 -101.432 	 
C 	 -113.399 	 54.4624 	 -102.708 	 
H 	 -113.022 	 55.4893 	 -102.972 	 
H 	 -113.36 	 53.8574 	 -103.643 	 
C 	 -114.962 	 54.5352 	 -102.553 	 
H 	 -115.504 	 53.5641 	 -102.376 	 
H 	 -115.194 	 55.2723 	 -101.78 	 
H 	 -115.412 	 54.9846 	 -103.465 	 
S 	 -107.219 	 56.6374 	 -99.8925 	 
C 	 -106.593 	 58.2409 	 -100.333 	 
C 	 -107.415 	 58.8409 	 -101.32 	 
C 	 -108.356 	 57.9338 	 -101.816 	 
C 	 -108.384 	 56.6519 	 -101.232 	 
H 	 -107.242 	 59.8876 	 -101.613 	 
C 	 -109.238 	 58.3343 	 -102.904 	 
H 	 -109.971 	 57.6063 	 -103.224 	 
H 	 -108.584 	 58.422 	 -103.782 	 
C 	 -109.943 	 59.7157 	 -102.747 	 
H 	 -110.563 	 59.8545 	 -103.678 	 
H 	 -109.188 	 60.5093 	 -102.621 	 
C 	 -110.792 	 59.703 	 -101.483 	 
H 	 -111.283 	 58.7417 	 -101.197 	 
H 	 -111.543 	 60.524 	 -101.52 	 
H 	 -110.19 	 59.965 	 -100.605 	 
H 	 -110.512 	 52.1982 	 -100.716 	 
H 	 -105.75 	 58.7143 	 -99.7784 	 
