34

S 	 -139.689 	 8.21926 	 3.69986 	 
C 	 -140.468 	 8.78549 	 2.23156 	 
C 	 -141.82 	 8.62367 	 2.28934 	 
C 	 -142.14 	 7.71634 	 3.34794 	 
C 	 -141.103 	 7.2906 	 4.16842 	 
H 	 -143.22 	 7.4011 	 3.56011 	 
C 	 -142.969 	 9.08614 	 1.36838 	 
H 	 -143.67 	 8.23759 	 1.27002 	 
H 	 -142.613 	 9.24459 	 0.369579 	 
C 	 -143.815 	 10.3216 	 1.86666 	 
H 	 -144.038 	 10.2761 	 2.93571 	 
H 	 -143.209 	 11.2646 	 1.94754 	 
C 	 -145.122 	 10.5358 	 1.16768 	 
H 	 -145.663 	 9.5877 	 1.15587 	 
H 	 -145.727 	 11.2875 	 1.76853 	 
H 	 -144.942 	 10.9033 	 0.130693 	 
S 	 -139.659 	 6.48811 	 6.38671 	 
C 	 -140.279 	 5.30744 	 7.48559 	 
C 	 -141.585 	 4.91537 	 7.12755 	 
C 	 -142.063 	 5.57776 	 5.90704 	 
C 	 -141.14 	 6.51096 	 5.45984 	 
H 	 -142.163 	 4.19156 	 7.75006 	 
C 	 -143.385 	 5.19408 	 5.32041 	 
H 	 -143.595 	 4.17183 	 5.46006 	 
H 	 -143.369 	 5.28014 	 4.15438 	 
C 	 -144.55 	 6.01179 	 5.77226 	 
H 	 -144.292 	 7.04366 	 5.64694 	 
H 	 -144.641 	 5.80997 	 6.85842 	 
C 	 -145.946 	 5.73059 	 5.12793 	 
H 	 -146.769 	 6.21663 	 5.69485 	 
H 	 -146.27 	 4.7512 	 5.37718 	 
H 	 -146.137 	 6.02946 	 4.11939 	 
H 	 -139.86 	 9.41939 	 1.53523 	 
H 	 -139.782 	 4.93309 	 8.38947 	 
