34

S 	 46.0077 	 -17.9798 	 -104.855 	 
C 	 44.6857 	 -17.6957 	 -105.967 	 
C 	 45.1894 	 -17.2239 	 -107.162 	 
C 	 46.5957 	 -17.0694 	 -107.238 	 
C 	 47.242 	 -17.5019 	 -106.063 	 
H 	 47.1809 	 -16.7136 	 -108.065 	 
C 	 44.3383 	 -16.6347 	 -108.302 	 
H 	 43.4394 	 -17.283 	 -108.436 	 
H 	 44.9084 	 -16.6894 	 -109.249 	 
C 	 43.8803 	 -15.1864 	 -108.039 	 
H 	 43.3098 	 -15.1174 	 -107.1 	 
H 	 44.7328 	 -14.4588 	 -107.991 	 
C 	 42.9273 	 -14.5621 	 -109.077 	 
H 	 42.391 	 -13.6334 	 -108.791 	 
H 	 43.4103 	 -14.4846 	 -110.101 	 
H 	 42.1403 	 -15.2127 	 -109.335 	 
S 	 49.0022 	 -16.2425 	 -104.168 	 
C 	 50.7384 	 -16.5873 	 -104.362 	 
C 	 50.9119 	 -17.2178 	 -105.6 	 
C 	 49.7587 	 -17.4939 	 -106.305 	 
C 	 48.5647 	 -17.236 	 -105.618 	 
H 	 51.9128 	 -17.4277 	 -105.88 	 
C 	 49.9159 	 -18.2337 	 -107.639 	 
H 	 50.627 	 -17.6148 	 -108.217 	 
H 	 48.9996 	 -18.1122 	 -108.204 	 
C 	 50.2734 	 -19.6832 	 -107.684 	 
H 	 51.2829 	 -19.7693 	 -107.186 	 
H 	 50.3787 	 -20.0432 	 -108.698 	 
C 	 49.3428 	 -20.5901 	 -106.922 	 
H 	 48.3193 	 -20.443 	 -107.142 	 
H 	 49.4961 	 -20.3004 	 -105.868 	 
H 	 49.5617 	 -21.7141 	 -107.094 	 
H 	 43.6121 	 -17.7471 	 -105.703 	 
H 	 51.4694 	 -16.1699 	 -103.717 	 
