34

S 	 -44.1928 	 -7.69021 	 6.96015 	 
C 	 -43.2964 	 -8.94422 	 6.24331 	 
C 	 -42.1661 	 -9.23313 	 6.94892 	 
C 	 -42.023 	 -8.41914 	 8.13968 	 
C 	 -43.0887 	 -7.54769 	 8.33297 	 
H 	 -41.1926 	 -8.31485 	 8.83205 	 
C 	 -40.9869 	 -10.1473 	 6.62794 	 
H 	 -41.3927 	 -11.1036 	 6.23005 	 
H 	 -40.448 	 -10.2693 	 7.5606 	 
C 	 -40.0785 	 -9.46749 	 5.56803 	 
H 	 -39.0232 	 -9.7982 	 5.84002 	 
H 	 -40.1299 	 -9.89734 	 4.58467 	 
C 	 -40.052 	 -7.90197 	 5.54223 	 
H 	 -39.2988 	 -7.6917 	 4.77859 	 
H 	 -41.0276 	 -7.50046 	 5.2124 	 
H 	 -39.7029 	 -7.51815 	 6.5347 	 
S 	 -43.4343 	 -7.11925 	 11.0151 	 
C 	 -43.4426 	 -5.47247 	 11.618 	 
C 	 -43.6852 	 -4.59826 	 10.6181 	 
C 	 -43.6155 	 -5.20113 	 9.31033 	 
C 	 -43.2713 	 -6.56605 	 9.38536 	 
H 	 -43.9902 	 -3.60257 	 10.8503 	 
C 	 -43.7717 	 -4.39441 	 7.97211 	 
H 	 -44.594 	 -4.85009 	 7.37685 	 
H 	 -42.9252 	 -4.65917 	 7.36565 	 
C 	 -44.0159 	 -2.88225 	 8.09805 	 
H 	 -43.1376 	 -2.49857 	 8.57076 	 
H 	 -44.7893 	 -2.62939 	 8.78643 	 
C 	 -44.1685 	 -2.28208 	 6.62833 	 
H 	 -44.3646 	 -1.17461 	 6.59543 	 
H 	 -45.108 	 -2.70219 	 6.18606 	 
H 	 -43.3798 	 -2.58782 	 5.91864 	 
H 	 -43.4203 	 -9.36495 	 5.18124 	 
H 	 -43.5812 	 -5.09104 	 12.6242 	 
