34

S 	 -60.9832 	 9.56478 	 -19.3096 	 
C 	 -60.7728 	 7.85351 	 -19.6752 	 
C 	 -60.8157 	 7.08166 	 -18.5642 	 
C 	 -60.8829 	 7.84726 	 -17.3435 	 
C 	 -60.9125 	 9.24876 	 -17.5832 	 
H 	 -60.8142 	 7.46827 	 -16.3268 	 
C 	 -60.6852 	 5.59811 	 -18.6287 	 
H 	 -60.2932 	 5.22309 	 -17.7062 	 
H 	 -59.9862 	 5.32664 	 -19.4158 	 
C 	 -62.0287 	 4.95759 	 -19.0113 	 
H 	 -62.7776 	 5.1698 	 -18.266 	 
H 	 -62.2442 	 5.31592 	 -19.9765 	 
C 	 -61.7986 	 3.43754 	 -19.1286 	 
H 	 -61.5694 	 2.97988 	 -18.1172 	 
H 	 -62.6816 	 2.95628 	 -19.5675 	 
H 	 -60.9128 	 3.28673 	 -19.8226 	 
S 	 -59.6871 	 10.8573 	 -15.669 	 
C 	 -60.6521 	 12.1987 	 -15.0276 	 
C 	 -62.0031 	 11.9503 	 -15.1253 	 
C 	 -62.2051 	 10.846 	 -16.071 	 
C 	 -61.072 	 10.343 	 -16.6282 	 
H 	 -62.6776 	 12.4819 	 -14.625 	 
C 	 -63.5977 	 10.5179 	 -16.6115 	 
H 	 -63.4465 	 10.3543 	 -17.6796 	 
H 	 -64.1627 	 11.4522 	 -16.4732 	 
C 	 -64.3178 	 9.31046 	 -15.8635 	 
H 	 -65.1824 	 9.82367 	 -15.3655 	 
H 	 -63.7008 	 8.91994 	 -15.0403 	 
C 	 -64.8715 	 8.07476 	 -16.5788 	 
H 	 -64.03 	 7.37466 	 -16.5768 	 
H 	 -65.2287 	 8.31019 	 -17.5608 	 
H 	 -65.7107 	 7.64008 	 -16.0509 	 
H 	 -60.7729 	 7.43989 	 -20.6626 	 
H 	 -60.2216 	 13.0541 	 -14.4755 	 
