34

S 	 -120.281 	 62.5693 	 -52.6138 	 
C 	 -119.168 	 63.2118 	 -51.4319 	 
C 	 -119.738 	 64.2312 	 -50.6906 	 
C 	 -121.159 	 64.2934 	 -50.9936 	 
C 	 -121.584 	 63.4183 	 -51.9201 	 
H 	 -121.92 	 64.9325 	 -50.6945 	 
C 	 -118.996 	 65.1395 	 -49.7664 	 
H 	 -118.223 	 64.6496 	 -49.1734 	 
H 	 -119.663 	 65.3967 	 -48.9387 	 
C 	 -118.463 	 66.372 	 -50.4744 	 
H 	 -117.891 	 66.9559 	 -49.8297 	 
H 	 -117.694 	 66.1184 	 -51.2022 	 
C 	 -119.434 	 67.2361 	 -51.2404 	 
H 	 -120.116 	 66.6642 	 -51.7969 	 
H 	 -120.086 	 67.6827 	 -50.5191 	 
H 	 -119.055 	 67.8229 	 -52.0485 	 
S 	 -122.845 	 63.6178 	 -54.4263 	 
C 	 -124.577 	 63.2512 	 -54.5225 	 
C 	 -125.163 	 63.2233 	 -53.2495 	 
C 	 -124.182 	 63.3599 	 -52.185 	 
C 	 -122.877 	 63.5176 	 -52.6662 	 
H 	 -126.22 	 63.0448 	 -53.1443 	 
C 	 -124.61 	 63.3609 	 -50.6765 	 
H 	 -123.713 	 63.359 	 -50.0422 	 
H 	 -125.173 	 62.4828 	 -50.4616 	 
C 	 -125.518 	 64.5226 	 -50.5142 	 
H 	 -126.443 	 64.2988 	 -51.0381 	 
H 	 -125.14 	 65.3698 	 -51.137 	 
C 	 -125.68 	 64.9981 	 -49.0706 	 
H 	 -126.037 	 64.1837 	 -48.4091 	 
H 	 -126.281 	 65.9069 	 -48.9993 	 
H 	 -124.774 	 65.3646 	 -48.6782 	 
H 	 -118.132 	 62.8749 	 -51.1497 	 
H 	 -125.14 	 63.1788 	 -55.4135 	 
