34

S 	 -40.6815 	 -46.5385 	 -80.0294 	 
C 	 -39.5035 	 -47.1544 	 -81.1401 	 
C 	 -39.5274 	 -48.5854 	 -81.2164 	 
C 	 -40.62 	 -49.1395 	 -80.4183 	 
C 	 -41.3026 	 -48.1822 	 -79.6569 	 
H 	 -40.8011 	 -50.1755 	 -80.2988 	 
C 	 -38.4437 	 -49.4233 	 -81.9694 	 
H 	 -38.0713 	 -50.1402 	 -81.2537 	 
H 	 -37.4775 	 -48.8966 	 -82.0638 	 
C 	 -39.0727 	 -50.0157 	 -83.2651 	 
H 	 -40.0509 	 -50.5394 	 -82.9802 	 
H 	 -39.1796 	 -49.1563 	 -83.9259 	 
C 	 -38.1559 	 -51.0248 	 -83.9823 	 
H 	 -38.633 	 -51.5735 	 -84.6973 	 
H 	 -37.4216 	 -50.4812 	 -84.5321 	 
H 	 -37.7126 	 -51.7211 	 -83.2236 	 
S 	 -42.2209 	 -48.1996 	 -76.9912 	 
C 	 -43.8208 	 -48.7875 	 -76.7135 	 
C 	 -44.5021 	 -49.1582 	 -77.8364 	 
C 	 -43.7319 	 -48.9405 	 -79.0658 	 
C 	 -42.4491 	 -48.4366 	 -78.7613 	 
H 	 -45.5063 	 -49.6598 	 -77.7678 	 
C 	 -44.3073 	 -49.1528 	 -80.4395 	 
H 	 -45.1245 	 -49.9742 	 -80.4439 	 
H 	 -43.4704 	 -49.5746 	 -81.0064 	 
C 	 -44.9889 	 -47.9486 	 -81.1369 	 
H 	 -45.6393 	 -48.2974 	 -81.9989 	 
H 	 -44.26 	 -47.2664 	 -81.5839 	 
C 	 -45.9779 	 -47.1552 	 -80.2945 	 
H 	 -46.4502 	 -46.3328 	 -80.8677 	 
H 	 -45.4032 	 -46.6782 	 -79.4261 	 
H 	 -46.7354 	 -47.9045 	 -80.0287 	 
H 	 -38.7308 	 -46.6356 	 -81.5892 	 
H 	 -44.1873 	 -49.047 	 -75.6761 	 
