34

S 	 -49.2798 	 1.2577 	 -17.4662 	 
C 	 -49.1265 	 -0.350401 	 -18.1647 	 
C 	 -48.8298 	 -1.23699 	 -17.1085 	 
C 	 -48.8611 	 -0.643521 	 -15.7927 	 
C 	 -49.1762 	 0.697898 	 -15.7785 	 
H 	 -48.7763 	 -1.04817 	 -14.8198 	 
C 	 -48.6495 	 -2.72035 	 -17.1912 	 
H 	 -47.725 	 -3.09672 	 -16.8025 	 
H 	 -48.6205 	 -2.94567 	 -18.2454 	 
C 	 -49.7965 	 -3.56032 	 -16.5694 	 
H 	 -49.9384 	 -3.27072 	 -15.5142 	 
H 	 -50.6351 	 -3.35623 	 -17.1717 	 
C 	 -49.5948 	 -5.04785 	 -16.8833 	 
H 	 -49.6201 	 -5.24888 	 -17.9361 	 
H 	 -48.5566 	 -5.22442 	 -16.5955 	 
H 	 -50.2964 	 -5.58943 	 -16.2925 	 
S 	 -48.0931 	 2.99929 	 -14.5928 	 
C 	 -48.2287 	 3.24531 	 -12.8777 	 
C 	 -49.2157 	 2.4046 	 -12.3221 	 
C 	 -49.6706 	 1.43632 	 -13.2961 	 
C 	 -49.1705 	 1.5629 	 -14.617 	 
H 	 -49.4505 	 2.61284 	 -11.3118 	 
C 	 -50.6629 	 0.327102 	 -12.7785 	 
H 	 -50.261 	 -0.0433619 	 -11.8427 	 
H 	 -50.6495 	 -0.66431 	 -13.37 	 
C 	 -52.127 	 0.689466 	 -12.7691 	 
H 	 -52.6297 	 0.688588 	 -13.7018 	 
H 	 -52.1582 	 1.67945 	 -12.3018 	 
C 	 -52.8703 	 -0.357113 	 -11.9674 	 
H 	 -52.9061 	 -1.33744 	 -12.3965 	 
H 	 -53.8953 	 0.0413399 	 -11.9871 	 
H 	 -52.5619 	 -0.374054 	 -10.9266 	 
H 	 -49.2085 	 -0.560636 	 -19.2019 	 
H 	 -47.6655 	 4.00813 	 -12.3276 	 
