34

S 	 -110.487 	 59.0177 	 -21.778 	 
C 	 -109.863 	 60.3478 	 -20.9204 	 
C 	 -109.38 	 60.0401 	 -19.674 	 
C 	 -109.354 	 58.6385 	 -19.4628 	 
C 	 -109.707 	 57.9737 	 -20.6095 	 
H 	 -108.891 	 58.1151 	 -18.6145 	 
C 	 -108.783 	 61.0182 	 -18.6316 	 
H 	 -107.989 	 60.5156 	 -17.9583 	 
H 	 -109.594 	 61.221 	 -17.9511 	 
C 	 -108.523 	 62.4069 	 -19.2233 	 
H 	 -107.785 	 62.3657 	 -19.9823 	 
H 	 -109.37 	 62.6218 	 -19.7567 	 
C 	 -108.133 	 63.4171 	 -18.1053 	 
H 	 -107.32 	 63.0242 	 -17.5565 	 
H 	 -107.875 	 64.5179 	 -18.406 	 
H 	 -108.911 	 63.4802 	 -17.3436 	 
S 	 -110.985 	 55.6389 	 -21.0278 	 
C 	 -110.158 	 54.1462 	 -21.3029 	 
C 	 -108.795 	 54.3778 	 -21.2502 	 
C 	 -108.432 	 55.7625 	 -20.9665 	 
C 	 -109.565 	 56.5678 	 -20.9244 	 
H 	 -108.137 	 53.5646 	 -21.5019 	 
C 	 -107 	 56.2013 	 -20.8686 	 
H 	 -106.608 	 56.0973 	 -19.814 	 
H 	 -106.99 	 57.2432 	 -21.0636 	 
C 	 -105.998 	 55.5572 	 -21.7941 	 
H 	 -106.375 	 55.5665 	 -22.8691 	 
H 	 -105.888 	 54.5227 	 -21.5108 	 
C 	 -104.775 	 56.409 	 -21.8628 	 
H 	 -104.981 	 57.4587 	 -22.1934 	 
H 	 -104.117 	 55.8939 	 -22.6205 	 
H 	 -104.318 	 56.433 	 -20.8611 	 
H 	 -109.815 	 61.3319 	 -21.307 	 
H 	 -110.683 	 53.2149 	 -21.54 	 
