34

S 	 -62.4637 	 10.867 	 21.6776 	 
C 	 -61.4165 	 12.1582 	 21.0597 	 
C 	 -60.1072 	 11.8748 	 21.4196 	 
C 	 -59.9836 	 10.5632 	 21.9219 	 
C 	 -61.1173 	 9.84154 	 22.012 	 
H 	 -58.9737 	 10.1186 	 22.1382 	 
C 	 -58.9307 	 12.7549 	 21.1479 	 
H 	 -59.2789 	 13.5143 	 20.4145 	 
H 	 -58.137 	 12.186 	 20.6492 	 
C 	 -58.4223 	 13.5023 	 22.3199 	 
H 	 -57.88 	 14.3783 	 21.9663 	 
H 	 -59.2884 	 13.9371 	 22.7514 	 
C 	 -57.6339 	 12.9269 	 23.4545 	 
H 	 -58.1977 	 12.1919 	 24.0549 	 
H 	 -56.7762 	 12.4562 	 22.9955 	 
H 	 -57.3313 	 13.7367 	 24.1302 	 
S 	 -60.2361 	 7.92571 	 23.7728 	 
C 	 -60.7413 	 6.32313 	 23.6218 	 
C 	 -61.7751 	 6.17902 	 22.7634 	 
C 	 -61.9968 	 7.40663 	 22.0015 	 
C 	 -61.1888 	 8.40831 	 22.4155 	 
H 	 -62.2565 	 5.18399 	 22.5272 	 
C 	 -63.0007 	 7.41393 	 20.8501 	 
H 	 -62.7873 	 6.57604 	 20.2074 	 
H 	 -62.7604 	 8.20528 	 20.1603 	 
C 	 -64.4682 	 7.36186 	 21.1724 	 
H 	 -64.6608 	 6.81421 	 22.0838 	 
H 	 -65.0643 	 6.88043 	 20.4257 	 
C 	 -65.0608 	 8.77857 	 21.4168 	 
H 	 -66.0532 	 8.75288 	 21.6594 	 
H 	 -64.8749 	 9.50911 	 20.6396 	 
H 	 -64.6806 	 9.12847 	 22.3647 	 
H 	 -61.8499 	 13.067 	 20.4932 	 
H 	 -60.356 	 5.47484 	 24.1519 	 
