34

S 	 -2.89858 	 -25.7059 	 -108.503 	 
C 	 -3.13393 	 -24.0472 	 -109.204 	 
C 	 -3.97558 	 -23.304 	 -108.425 	 
C 	 -4.43525 	 -23.9866 	 -107.237 	 
C 	 -3.97553 	 -25.3509 	 -107.172 	 
H 	 -5.10349 	 -23.6127 	 -106.507 	 
C 	 -4.3369 	 -21.8958 	 -108.708 	 
H 	 -3.67578 	 -21.4553 	 -109.546 	 
H 	 -3.9778 	 -21.2753 	 -107.891 	 
C 	 -5.80978 	 -21.5034 	 -108.89 	 
H 	 -6.35588 	 -21.5279 	 -107.913 	 
H 	 -5.85865 	 -20.4398 	 -109.171 	 
C 	 -6.49101 	 -22.3544 	 -109.917 	 
H 	 -7.45064 	 -21.9461 	 -110.279 	 
H 	 -5.87608 	 -22.6589 	 -110.794 	 
H 	 -6.65987 	 -23.2702 	 -109.425 	 
S 	 -2.78819 	 -26.8898 	 -105.224 	 
C 	 -3.85455 	 -27.9505 	 -104.27 	 
C 	 -5.22794 	 -27.825 	 -104.58 	 
C 	 -5.42598 	 -26.8557 	 -105.599 	 
C 	 -4.20733 	 -26.3731 	 -106.115 	 
H 	 -5.99757 	 -28.3152 	 -103.989 	 
C 	 -6.7599 	 -26.4728 	 -106.152 	 
H 	 -6.7706 	 -25.387 	 -106.205 	 
H 	 -7.54535 	 -26.6633 	 -105.446 	 
C 	 -7.04064 	 -27.0933 	 -107.503 	 
H 	 -6.11259 	 -27.1369 	 -108.107 	 
H 	 -7.8241 	 -26.5682 	 -108.098 	 
C 	 -7.61545 	 -28.5119 	 -107.292 	 
H 	 -6.96805 	 -29.2842 	 -106.853 	 
H 	 -7.90031 	 -29.0281 	 -108.183 	 
H 	 -8.43609 	 -28.5087 	 -106.567 	 
H 	 -2.45061 	 -23.5723 	 -109.966 	 
H 	 -3.47274 	 -28.6696 	 -103.536 	 
