34

S 	 -118.796 	 59.758 	 -33.0687 	 
C 	 -119.11 	 61.454 	 -32.8198 	 
C 	 -118.35 	 62.2374 	 -33.6389 	 
C 	 -117.596 	 61.4708 	 -34.5403 	 
C 	 -117.649 	 60.0797 	 -34.3358 	 
H 	 -116.885 	 61.8398 	 -35.3606 	 
C 	 -118.448 	 63.7546 	 -33.7232 	 
H 	 -117.428 	 64.0185 	 -33.6997 	 
H 	 -118.969 	 64.1379 	 -32.8457 	 
C 	 -119.202 	 64.2161 	 -35.0342 	 
H 	 -118.851 	 65.3007 	 -35.1939 	 
H 	 -118.955 	 63.5466 	 -35.8723 	 
C 	 -120.71 	 64.201 	 -34.9488 	 
H 	 -121.099 	 63.342 	 -35.5501 	 
H 	 -121.132 	 64.2454 	 -33.9836 	 
H 	 -121.004 	 65.1166 	 -35.4766 	 
S 	 -118.11 	 57.6602 	 -35.5943 	 
C 	 -116.706 	 56.8322 	 -36.2947 	 
C 	 -115.52 	 57.5269 	 -36.1417 	 
C 	 -115.746 	 58.7158 	 -35.3776 	 
C 	 -117.08 	 58.916 	 -34.9698 	 
H 	 -114.635 	 57.0954 	 -36.5225 	 
C 	 -114.611 	 59.6526 	 -35.0235 	 
H 	 -113.678 	 59.0992 	 -34.7437 	 
H 	 -114.744 	 60.1437 	 -34.0889 	 
C 	 -114.202 	 60.6629 	 -36.1158 	 
H 	 -113.686 	 61.5084 	 -35.6881 	 
H 	 -115.027 	 61.0492 	 -36.6291 	 
C 	 -113.298 	 60.0953 	 -37.2216 	 
H 	 -113.316 	 60.7689 	 -38.1267 	 
H 	 -113.636 	 59.0752 	 -37.4582 	 
H 	 -112.27 	 59.9678 	 -36.7939 	 
H 	 -119.725 	 61.9381 	 -32.0484 	 
H 	 -116.768 	 55.9393 	 -36.8251 	 
