34

S 	 -117.186 	 41.8452 	 -112.255 	 
C 	 -116.733 	 41.2408 	 -113.857 	 
C 	 -115.378 	 40.9064 	 -113.839 	 
C 	 -114.707 	 41.156 	 -112.576 	 
C 	 -115.553 	 41.6283 	 -111.584 	 
H 	 -113.665 	 40.9467 	 -112.404 	 
C 	 -114.558 	 40.4102 	 -115.015 	 
H 	 -113.525 	 40.8176 	 -114.927 	 
H 	 -114.922 	 40.8224 	 -115.954 	 
C 	 -114.574 	 38.875 	 -115.257 	 
H 	 -114.526 	 38.331 	 -114.274 	 
H 	 -115.519 	 38.5023 	 -115.618 	 
C 	 -113.548 	 38.3559 	 -116.231 	 
H 	 -112.478 	 38.6126 	 -116.017 	 
H 	 -113.657 	 37.2985 	 -116.274 	 
H 	 -113.766 	 38.7403 	 -117.231 	 
S 	 -115.252 	 43.8016 	 -109.886 	 
C 	 -114.67 	 43.553 	 -108.292 	 
C 	 -114.142 	 42.2832 	 -108.161 	 
C 	 -114.456 	 41.4126 	 -109.245 	 
C 	 -115.181 	 42.0395 	 -110.229 	 
H 	 -113.681 	 41.9255 	 -107.245 	 
C 	 -114.148 	 39.9416 	 -109.34 	 
H 	 -113.374 	 39.7429 	 -108.607 	 
H 	 -113.728 	 39.8491 	 -110.368 	 
C 	 -115.385 	 39.0699 	 -109.131 	 
H 	 -116.12 	 39.4467 	 -109.863 	 
H 	 -115.826 	 39.3324 	 -108.153 	 
C 	 -115.085 	 37.6088 	 -109.433 	 
H 	 -116.026 	 37.0089 	 -109.312 	 
H 	 -114.342 	 37.1844 	 -108.763 	 
H 	 -114.693 	 37.5543 	 -110.456 	 
H 	 -117.457 	 41.1702 	 -114.642 	 
H 	 -114.692 	 44.3727 	 -107.517 	 
