34

S 	 -40.2668 	 -1.79435 	 13.2736 	 
C 	 -40.1437 	 -1.6574 	 14.9749 	 
C 	 -40.8001 	 -0.538688 	 15.4345 	 
C 	 -41.4675 	 0.225552 	 14.4213 	 
C 	 -41.2275 	 -0.227502 	 13.1576 	 
H 	 -42.1806 	 1.06911 	 14.6285 	 
C 	 -40.8835 	 -0.270192 	 16.9493 	 
H 	 -41.1883 	 -1.22484 	 17.4424 	 
H 	 -41.6035 	 0.523612 	 17.1525 	 
C 	 -39.5651 	 0.0280671 	 17.6713 	 
H 	 -39.7482 	 -0.186891 	 18.7419 	 
H 	 -38.7946 	 -0.66931 	 17.3786 	 
C 	 -39.0705 	 1.49076 	 17.5735 	 
H 	 -38.0133 	 1.59028 	 17.846 	 
H 	 -39.2178 	 2.0051 	 16.6068 	 
H 	 -39.5454 	 2.14415 	 18.2905 	 
S 	 -41.9683 	 -0.799783 	 10.5741 	 
C 	 -42.5266 	 0.375869 	 9.41144 	 
C 	 -42.4424 	 1.56498 	 10.0382 	 
C 	 -42.1255 	 1.64698 	 11.4346 	 
C 	 -41.7832 	 0.324494 	 11.8856 	 
H 	 -42.8897 	 2.49048 	 9.48971 	 
C 	 -42.2468 	 2.96289 	 12.2398 	 
H 	 -41.9731 	 3.74827 	 11.5687 	 
H 	 -41.489 	 2.92447 	 12.9939 	 
C 	 -43.6372 	 3.26858 	 12.7626 	 
H 	 -43.9659 	 2.42594 	 13.4121 	 
H 	 -44.379 	 3.4357 	 11.9899 	 
C 	 -43.7508 	 4.41372 	 13.8177 	 
H 	 -43.2306 	 5.27798 	 13.34 	 
H 	 -43.2543 	 4.15483 	 14.7663 	 
H 	 -44.8127 	 4.66662 	 13.9058 	 
H 	 -39.7212 	 -2.35757 	 15.6551 	 
H 	 -43.0555 	 0.392919 	 8.41267 	 
