34

S 	 -117.537 	 33.7772 	 -117.226 	 
C 	 -116.842 	 33.3495 	 -118.804 	 
C 	 -115.723 	 34.1274 	 -119.1 	 
C 	 -115.296 	 34.8856 	 -117.993 	 
C 	 -116.084 	 34.6928 	 -116.884 	 
H 	 -114.438 	 35.5627 	 -117.945 	 
C 	 -114.919 	 34.0636 	 -120.398 	 
H 	 -114.506 	 35.0644 	 -120.519 	 
H 	 -115.634 	 34.0703 	 -121.294 	 
C 	 -113.685 	 33.1551 	 -120.264 	 
H 	 -113.106 	 33.4259 	 -119.366 	 
H 	 -114.124 	 32.1526 	 -119.987 	 
C 	 -112.722 	 33.0164 	 -121.455 	 
H 	 -111.723 	 32.5934 	 -121.13 	 
H 	 -113.189 	 32.3936 	 -122.179 	 
H 	 -112.444 	 33.8998 	 -121.977 	 
S 	 -114.289 	 35.2416 	 -114.852 	 
C 	 -114.847 	 36.069 	 -113.393 	 
C 	 -116.151 	 36.4652 	 -113.532 	 
C 	 -116.718 	 35.9343 	 -114.698 	 
C 	 -115.825 	 35.33 	 -115.607 	 
H 	 -116.739 	 36.9469 	 -112.756 	 
C 	 -118.227 	 36.0927 	 -114.878 	 
H 	 -118.603 	 36.3416 	 -115.879 	 
H 	 -118.534 	 37.0365 	 -114.388 	 
C 	 -119.011 	 34.9917 	 -114.146 	 
H 	 -118.682 	 35.044 	 -113.042 	 
H 	 -118.684 	 34.0682 	 -114.572 	 
C 	 -120.568 	 35.0812 	 -114.074 	 
H 	 -120.977 	 35.2286 	 -115.028 	 
H 	 -120.898 	 35.8415 	 -113.351 	 
H 	 -121.02 	 34.1177 	 -113.927 	 
H 	 -117.309 	 32.6827 	 -119.559 	 
H 	 -114.12 	 36.3641 	 -112.575 	 
