34

S 	 -38.4568 	 19.6457 	 12.1142 	 
C 	 -40.0731 	 18.9328 	 12.2881 	 
C 	 -40.4231 	 18.7774 	 13.5838 	 
C 	 -39.3545 	 19.0886 	 14.5103 	 
C 	 -38.2305 	 19.5775 	 13.8256 	 
H 	 -39.3984 	 18.9481 	 15.5818 	 
C 	 -41.8002 	 18.2142 	 13.9627 	 
H 	 -42.1592 	 17.6451 	 13.0786 	 
H 	 -42.4049 	 19.0475 	 13.9156 	 
C 	 -41.9789 	 17.4628 	 15.3114 	 
H 	 -41.1849 	 16.8343 	 15.6139 	 
H 	 -41.7239 	 18.2669 	 16.0282 	 
C 	 -43.3863 	 16.9019 	 15.5551 	 
H 	 -43.4697 	 16.0611 	 14.9205 	 
H 	 -43.4705 	 16.5913 	 16.5159 	 
H 	 -44.2203 	 17.5652 	 15.4842 	 
S 	 -35.4414 	 19.3712 	 13.8747 	 
C 	 -34.6383 	 20.349 	 15.1098 	 
C 	 -35.4275 	 21.287 	 15.6458 	 
C 	 -36.8193 	 21.0248 	 15.3904 	 
C 	 -36.9993 	 20.0874 	 14.3723 	 
H 	 -35.0337 	 21.9711 	 16.3256 	 
C 	 -37.9552 	 21.9046 	 15.8831 	 
H 	 -38.1621 	 21.7818 	 16.9518 	 
H 	 -38.8407 	 21.6588 	 15.3505 	 
C 	 -37.774 	 23.4444 	 15.6748 	 
H 	 -37.0672 	 23.6911 	 16.4533 	 
H 	 -38.7372 	 23.9086 	 15.8864 	 
C 	 -37.1738 	 23.8704 	 14.1739 	 
H 	 -37.9495 	 23.6462 	 13.3691 	 
H 	 -36.2429 	 23.3899 	 13.9866 	 
H 	 -36.9512 	 24.9261 	 14.0169 	 
H 	 -40.7847 	 18.8304 	 11.47 	 
H 	 -33.6701 	 20.1658 	 15.5389 	 
