34

S 	 -105.975 	 22.4568 	 -117.44 	 
C 	 -104.965 	 21.5741 	 -116.341 	 
C 	 -104.15 	 22.4122 	 -115.652 	 
C 	 -104.299 	 23.7367 	 -116.086 	 
C 	 -105.166 	 23.912 	 -117.135 	 
H 	 -103.806 	 24.7085 	 -115.835 	 
C 	 -103.099 	 22.0682 	 -114.634 	 
H 	 -102.203 	 22.6532 	 -114.859 	 
H 	 -102.799 	 21.0231 	 -114.738 	 
C 	 -103.583 	 22.3453 	 -113.225 	 
H 	 -104.017 	 23.3087 	 -113.047 	 
H 	 -104.372 	 21.7211 	 -113.108 	 
C 	 -102.535 	 22.087 	 -112.142 	 
H 	 -102.18 	 21.04 	 -112.197 	 
H 	 -101.755 	 22.7965 	 -112.159 	 
H 	 -102.971 	 22.1569 	 -111.155 	 
S 	 -107.129 	 25.8008 	 -117.07 	 
C 	 -106.558 	 27.4597 	 -117.333 	 
C 	 -105.323 	 27.5436 	 -117.897 	 
C 	 -104.67 	 26.2584 	 -118.002 	 
C 	 -105.521 	 25.2224 	 -117.67 	 
H 	 -104.966 	 28.4912 	 -118.284 	 
C 	 -103.203 	 26.1604 	 -118.544 	 
H 	 -102.707 	 25.3539 	 -118.031 	 
H 	 -102.733 	 27.0881 	 -118.231 	 
C 	 -103.146 	 25.887 	 -120.023 	 
H 	 -103.649 	 26.6959 	 -120.574 	 
H 	 -103.63 	 24.9368 	 -120.272 	 
C 	 -101.687 	 25.8362 	 -120.587 	 
H 	 -101.056 	 26.7803 	 -120.524 	 
H 	 -101.674 	 25.7368 	 -121.683 	 
H 	 -101.039 	 25.0118 	 -120.203 	 
H 	 -105.174 	 20.4697 	 -116.21 	 
H 	 -107.174 	 28.3388 	 -117.179 	 
