34

S 	 -49.248 	 15.3256 	 -86.6904 	 
C 	 -49.8502 	 16.872 	 -86.0141 	 
C 	 -50.4936 	 17.6362 	 -87.0021 	 
C 	 -50.6014 	 16.9498 	 -88.2462 	 
C 	 -49.9747 	 15.7065 	 -88.2732 	 
H 	 -51.0621 	 17.3493 	 -89.0895 	 
C 	 -51.1815 	 18.9464 	 -86.8544 	 
H 	 -51.3245 	 19.1226 	 -85.745 	 
H 	 -52.2122 	 18.8025 	 -87.1087 	 
C 	 -50.4328 	 20.1043 	 -87.5615 	 
H 	 -49.8758 	 19.6218 	 -88.3359 	 
H 	 -51.192 	 20.8656 	 -87.9272 	 
C 	 -49.3848 	 20.85 	 -86.6605 	 
H 	 -49.8726 	 21.4767 	 -85.9375 	 
H 	 -48.7005 	 20.1309 	 -86.1764 	 
H 	 -48.7531 	 21.5505 	 -87.2314 	 
S 	 -51.6884 	 14.2343 	 -89.697 	 
C 	 -51.1147 	 13.0585 	 -90.822 	 
C 	 -49.7557 	 12.9715 	 -90.9128 	 
C 	 -49.1523 	 13.9479 	 -90.0339 	 
C 	 -50.0221 	 14.6754 	 -89.3416 	 
H 	 -49.2401 	 12.321 	 -91.5713 	 
C 	 -47.6918 	 14.14 	 -89.8317 	 
H 	 -47.2573 	 13.146 	 -89.7431 	 
H 	 -47.3247 	 14.6584 	 -88.97 	 
C 	 -46.8906 	 14.9424 	 -90.8935 	 
H 	 -47.5628 	 15.8139 	 -91.0909 	 
H 	 -46.8787 	 14.4201 	 -91.8567 	 
C 	 -45.5428 	 15.5206 	 -90.419 	 
H 	 -45.4565 	 15.9009 	 -89.3956 	 
H 	 -45.2458 	 16.3504 	 -91.0905 	 
H 	 -44.7834 	 14.7551 	 -90.4965 	 
H 	 -49.7008 	 17.0948 	 -84.9823 	 
H 	 -51.7726 	 12.5541 	 -91.4541 	 
