34

S 	 -72.0074 	 0.599599 	 -67.6535 	 
C 	 -71.5983 	 2.1808 	 -67.022 	 
C 	 -72.6759 	 2.73843 	 -66.3404 	 
C 	 -73.8115 	 1.92831 	 -66.4541 	 
C 	 -73.6449 	 0.79157 	 -67.2566 	 
H 	 -74.7948 	 2.26396 	 -66.1255 	 
C 	 -72.7275 	 4.09551 	 -65.5834 	 
H 	 -71.8492 	 4.1645 	 -64.8702 	 
H 	 -73.6732 	 4.16501 	 -65.0797 	 
C 	 -72.7005 	 5.37297 	 -66.5278 	 
H 	 -71.8264 	 5.26123 	 -67.1494 	 
H 	 -73.5517 	 5.3021 	 -67.2496 	 
C 	 -72.9527 	 6.69675 	 -65.7719 	 
H 	 -73.9647 	 6.73264 	 -65.4593 	 
H 	 -72.4245 	 6.76781 	 -64.759 	 
H 	 -72.8692 	 7.62704 	 -66.308 	 
S 	 -74.0916 	 -1.5893 	 -68.53 	 
C 	 -75.6568 	 -2.25727 	 -68.6984 	 
C 	 -76.559 	 -1.40978 	 -68.1423 	 
C 	 -76.0396 	 -0.274393 	 -67.4689 	 
C 	 -74.6605 	 -0.204812 	 -67.6204 	 
H 	 -77.6157 	 -1.66415 	 -68.2057 	 
C 	 -76.9341 	 0.901154 	 -67.0454 	 
H 	 -77.9087 	 0.856303 	 -67.6035 	 
H 	 -76.4239 	 1.79062 	 -67.392 	 
C 	 -77.2384 	 0.914049 	 -65.5256 	 
H 	 -76.223 	 0.971869 	 -65.0217 	 
H 	 -77.7095 	 0.00879112 	 -65.2419 	 
C 	 -78.0255 	 2.22413 	 -65.2657 	 
H 	 -77.9208 	 2.49458 	 -64.1881 	 
H 	 -79.0726 	 2.27819 	 -65.628 	 
H 	 -77.5918 	 3.10832 	 -65.8104 	 
H 	 -70.5608 	 2.5693 	 -66.986 	 
H 	 -75.8956 	 -3.17372 	 -69.0237 	 
