34

S 	 -107.584 	 49.9905 	 -109.471 	 
C 	 -106.265 	 50.8622 	 -110.262 	 
C 	 -106.548 	 52.1803 	 -110.386 	 
C 	 -107.897 	 52.4836 	 -110.039 	 
C 	 -108.618 	 51.4278 	 -109.673 	 
H 	 -108.43 	 53.4091 	 -110.129 	 
C 	 -105.586 	 53.1917 	 -110.994 	 
H 	 -105.992 	 53.5924 	 -111.91 	 
H 	 -104.655 	 52.7304 	 -111.332 	 
C 	 -105.051 	 54.3447 	 -110.173 	 
H 	 -104.306 	 53.93 	 -109.445 	 
H 	 -104.492 	 55.1166 	 -110.684 	 
C 	 -106.121 	 55.1726 	 -109.422 	 
H 	 -105.641 	 56.0067 	 -108.862 	 
H 	 -106.867 	 55.5813 	 -110.044 	 
H 	 -106.458 	 54.4813 	 -108.7 	 
S 	 -110.682 	 52.6619 	 -108.507 	 
C 	 -112.285 	 52.086 	 -108.715 	 
C 	 -112.297 	 51.0352 	 -109.565 	 
C 	 -111.01 	 50.6007 	 -110.021 	 
C 	 -110.042 	 51.4185 	 -109.508 	 
H 	 -113.272 	 50.5746 	 -109.708 	 
C 	 -110.798 	 49.3825 	 -110.951 	 
H 	 -111.572 	 48.6119 	 -110.813 	 
H 	 -109.951 	 48.8133 	 -110.553 	 
C 	 -110.694 	 49.6446 	 -112.464 	 
H 	 -110.606 	 48.6365 	 -112.918 	 
H 	 -109.833 	 50.2313 	 -112.682 	 
C 	 -111.989 	 50.134 	 -113.199 	 
H 	 -112.74 	 49.3603 	 -113.251 	 
H 	 -111.781 	 50.2838 	 -114.214 	 
H 	 -112.497 	 51.0189 	 -112.755 	 
H 	 -105.204 	 50.4867 	 -110.425 	 
H 	 -113.147 	 52.5049 	 -108.176 	 
