34

S 	 -132.944 	 63.5659 	 -55.4425 	 
C 	 -133.612 	 65.2083 	 -55.5971 	 
C 	 -133.205 	 65.8713 	 -56.8014 	 
C 	 -132.299 	 65.0595 	 -57.5599 	 
C 	 -132.125 	 63.8219 	 -56.9921 	 
H 	 -131.915 	 65.2613 	 -58.5194 	 
C 	 -133.653 	 67.2064 	 -57.2746 	 
H 	 -134.616 	 67.5132 	 -56.7547 	 
H 	 -133.908 	 67.1905 	 -58.3272 	 
C 	 -132.738 	 68.365 	 -57.0595 	 
H 	 -131.901 	 68.3334 	 -57.7777 	 
H 	 -133.288 	 69.2828 	 -57.2746 	 
C 	 -132.074 	 68.3882 	 -55.6689 	 
H 	 -131.348 	 67.5162 	 -55.5513 	 
H 	 -131.327 	 69.2193 	 -55.4687 	 
H 	 -132.864 	 68.2083 	 -54.8545 	 
S 	 -132.103 	 61.3953 	 -58.3217 	 
C 	 -130.642 	 60.7771 	 -58.9439 	 
C 	 -129.567 	 61.5839 	 -58.6244 	 
C 	 -129.989 	 62.77 	 -57.9299 	 
C 	 -131.277 	 62.7377 	 -57.5505 	 
H 	 -128.604 	 61.2896 	 -58.9075 	 
C 	 -128.989 	 63.7574 	 -57.3786 	 
H 	 -129.631 	 64.2572 	 -56.6749 	 
H 	 -128.768 	 64.5562 	 -58.1178 	 
C 	 -127.809 	 63.1242 	 -56.6579 	 
H 	 -127.247 	 62.543 	 -57.3824 	 
H 	 -128.343 	 62.4478 	 -55.963 	 
C 	 -126.967 	 64.1767 	 -55.9622 	 
H 	 -126.561 	 65.0465 	 -56.4853 	 
H 	 -126.037 	 63.5728 	 -55.6946 	 
H 	 -127.454 	 64.5508 	 -55.0617 	 
H 	 -134.377 	 65.6469 	 -54.9167 	 
H 	 -130.623 	 59.9126 	 -59.5422 	 
