34

S 	 -103.928 	 0.107561 	 -119.436 	 
C 	 -105.372 	 -0.344841 	 -120.334 	 
C 	 -105.204 	 -1.45869 	 -121.166 	 
C 	 -103.859 	 -1.931 	 -121.016 	 
C 	 -102.998 	 -1.09304 	 -120.245 	 
H 	 -103.553 	 -2.82149 	 -121.55 	 
C 	 -106.234 	 -2.09725 	 -122.023 	 
H 	 -106.028 	 -1.82133 	 -123.03 	 
H 	 -107.261 	 -1.59098 	 -121.91 	 
C 	 -106.448 	 -3.64354 	 -121.778 	 
H 	 -105.552 	 -4.22188 	 -121.992 	 
H 	 -106.623 	 -3.82744 	 -120.669 	 
C 	 -107.787 	 -4.19855 	 -122.407 	 
H 	 -108.649 	 -3.62067 	 -122.092 	 
H 	 -107.731 	 -4.18503 	 -123.484 	 
H 	 -107.943 	 -5.24641 	 -122.087 	 
S 	 -100.403 	 0.0853533 	 -120.217 	 
C 	 -99.0791 	 -0.744344 	 -119.423 	 
C 	 -99.5176 	 -1.97831 	 -119.039 	 
C 	 -100.908 	 -2.23128 	 -119.269 	 
C 	 -101.536 	 -1.23784 	 -120.02 	 
H 	 -98.8778 	 -2.59118 	 -118.393 	 
C 	 -101.591 	 -3.42274 	 -118.714 	 
H 	 -102.68 	 -3.30389 	 -118.615 	 
H 	 -101.227 	 -3.51955 	 -117.689 	 
C 	 -101.238 	 -4.78268 	 -119.428 	 
H 	 -100.173 	 -4.89459 	 -119.533 	 
H 	 -101.627 	 -4.79651 	 -120.442 	 
C 	 -101.657 	 -6.0072 	 -118.71 	 
H 	 -101.352 	 -6.21239 	 -117.741 	 
H 	 -101.438 	 -6.93017 	 -119.254 	 
H 	 -102.738 	 -6.05231 	 -118.805 	 
H 	 -106.298 	 0.12166 	 -120.226 	 
H 	 -98.1142 	 -0.323413 	 -119.148 	 
