34

S 	 -31.8543 	 -7.06156 	 1.30675 	 
C 	 -31.8963 	 -6.59213 	 3.07256 	 
C 	 -33.1218 	 -6.1905 	 3.41129 	 
C 	 -34.0448 	 -6.21259 	 2.33324 	 
C 	 -33.5025 	 -6.53938 	 1.12911 	 
H 	 -35.0909 	 -5.99012 	 2.4874 	 
C 	 -33.5516 	 -5.7463 	 4.86651 	 
H 	 -32.5958 	 -5.4293 	 5.27982 	 
H 	 -33.7552 	 -6.6147 	 5.48906 	 
C 	 -34.689 	 -4.67261 	 5.14225 	 
H 	 -35.6193 	 -5.1488 	 4.76283 	 
H 	 -34.8891 	 -4.55105 	 6.16623 	 
C 	 -34.3723 	 -3.25078 	 4.60781 	 
H 	 -34.3082 	 -3.28303 	 3.55297 	 
H 	 -35.212 	 -2.64317 	 4.9983 	 
H 	 -33.4859 	 -2.81882 	 4.9952 	 
S 	 -33.783 	 -7.95647 	 -1.19419 	 
C 	 -35.1044 	 -7.63723 	 -2.24743 	 
C 	 -35.7801 	 -6.46529 	 -1.80841 	 
C 	 -35.3723 	 -5.98919 	 -0.562617 	 
C 	 -34.2206 	 -6.66775 	 -0.139382 	 
H 	 -36.5831 	 -6.21695 	 -2.41063 	 
C 	 -36.0743 	 -4.88355 	 0.248817 	 
H 	 -35.2992 	 -4.29116 	 0.654294 	 
H 	 -36.6379 	 -5.47834 	 0.964507 	 
C 	 -37.0215 	 -3.94767 	 -0.598 	 
H 	 -37.8752 	 -4.38627 	 -1.05656 	 
H 	 -36.6278 	 -3.48773 	 -1.48815 	 
C 	 -37.4588 	 -2.73838 	 0.279401 	 
H 	 -38.3113 	 -2.15874 	 -0.115608 	 
H 	 -36.5834 	 -2.03502 	 0.248805 	 
H 	 -37.5913 	 -2.87173 	 1.37601 	 
H 	 -31.1002 	 -6.81811 	 3.79495 	 
H 	 -35.4526 	 -8.05535 	 -3.1838 	 
