34

S 	 -120.784 	 46.9414 	 -23.8891 	 
C 	 -119.963 	 45.399 	 -24.0502 	 
C 	 -120.4 	 44.6206 	 -25.1322 	 
C 	 -121.12 	 45.5123 	 -26.0319 	 
C 	 -121.451 	 46.7475 	 -25.5279 	 
H 	 -121.552 	 45.262 	 -26.9852 	 
C 	 -119.826 	 43.2878 	 -25.5257 	 
H 	 -119.04 	 42.9953 	 -24.851 	 
H 	 -119.399 	 43.3491 	 -26.4886 	 
C 	 -120.861 	 42.1579 	 -25.5039 	 
H 	 -121.127 	 41.9316 	 -24.4326 	 
H 	 -121.62 	 42.6699 	 -26.0497 	 
C 	 -120.451 	 40.9276 	 -26.2935 	 
H 	 -121.266 	 40.1975 	 -26.376 	 
H 	 -120.309 	 41.1011 	 -27.3382 	 
H 	 -119.528 	 40.3896 	 -25.9185 	 
S 	 -123.386 	 48.6575 	 -25.1912 	 
C 	 -124.107 	 49.4687 	 -26.5497 	 
C 	 -123.567 	 48.9617 	 -27.7199 	 
C 	 -122.532 	 47.9797 	 -27.5399 	 
C 	 -122.274 	 47.7734 	 -26.2001 	 
H 	 -123.923 	 49.3645 	 -28.7089 	 
C 	 -121.895 	 47.4093 	 -28.8029 	 
H 	 -122.283 	 47.9779 	 -29.6214 	 
H 	 -122.236 	 46.438 	 -28.879 	 
C 	 -120.365 	 47.3895 	 -28.8315 	 
H 	 -119.905 	 46.6028 	 -28.1378 	 
H 	 -120.04 	 48.3449 	 -28.4374 	 
C 	 -119.819 	 47.2406 	 -30.2654 	 
H 	 -120.168 	 46.4207 	 -30.765 	 
H 	 -118.678 	 47.0787 	 -30.2696 	 
H 	 -119.956 	 48.0733 	 -30.8235 	 
H 	 -119.406 	 44.9987 	 -23.2445 	 
H 	 -124.718 	 50.3993 	 -26.4846 	 
