34

S 	 -89.5981 	 6.81106 	 0.763664 	 
C 	 -88.2846 	 6.02169 	 0.0148903 	 
C 	 -88.2121 	 4.67789 	 0.327957 	 
C 	 -89.3716 	 4.23962 	 0.984392 	 
C 	 -90.2839 	 5.25271 	 1.34764 	 
H 	 -89.5806 	 3.14593 	 1.2219 	 
C 	 -87.0095 	 3.80674 	 0.147259 	 
H 	 -86.6245 	 3.40648 	 1.11449 	 
H 	 -86.1586 	 4.48471 	 -0.0691273 	 
C 	 -87.2259 	 2.74968 	 -0.854862 	 
H 	 -88.2396 	 2.27658 	 -0.791491 	 
H 	 -87.4225 	 3.24207 	 -1.80464 	 
C 	 -86.0709 	 1.76809 	 -0.940514 	 
H 	 -85.1189 	 2.30773 	 -1.07512 	 
H 	 -86.152 	 1.16546 	 -0.0492774 	 
H 	 -86.1588 	 1.20953 	 -1.80594 	 
S 	 -92.9511 	 5.34489 	 1.09032 	 
C 	 -94.0151 	 4.94887 	 2.49475 	 
C 	 -93.2861 	 4.54692 	 3.5839 	 
C 	 -91.8893 	 4.57289 	 3.28936 	 
C 	 -91.5465 	 5.09657 	 2.05845 	 
H 	 -93.771 	 4.29477 	 4.45978 	 
C 	 -90.8555 	 4.2535 	 4.32246 	 
H 	 -90.7434 	 5.14681 	 5.03195 	 
H 	 -89.8819 	 4.09087 	 3.91763 	 
C 	 -91.2799 	 3.08962 	 5.28504 	 
H 	 -92.2203 	 3.24008 	 5.87914 	 
H 	 -90.4701 	 2.90571 	 6.05483 	 
C 	 -91.5006 	 1.69994 	 4.51127 	 
H 	 -92.5035 	 1.69919 	 3.96063 	 
H 	 -91.6135 	 0.913377 	 5.3219 	 
H 	 -90.624 	 1.39814 	 3.90406 	 
H 	 -87.4116 	 6.50548 	 -0.223172 	 
H 	 -95.0185 	 5.20001 	 2.57113 	 
