34

S 	 -59.4006 	 7.10945 	 -13.7821 	 
C 	 -58.7996 	 5.48201 	 -13.4128 	 
C 	 -58.3304 	 4.916 	 -14.5956 	 
C 	 -58.6007 	 5.71452 	 -15.7635 	 
C 	 -59.2434 	 6.89157 	 -15.538 	 
H 	 -58.2428 	 5.43564 	 -16.7512 	 
C 	 -57.6338 	 3.59568 	 -14.7316 	 
H 	 -58.0005 	 3.258 	 -15.7166 	 
H 	 -57.9587 	 2.94985 	 -13.8823 	 
C 	 -56.0662 	 3.75451 	 -14.6192 	 
H 	 -55.7334 	 4.3504 	 -15.5 	 
H 	 -55.7486 	 4.34232 	 -13.7433 	 
C 	 -55.2567 	 2.49761 	 -14.4657 	 
H 	 -55.7512 	 1.84055 	 -13.8482 	 
H 	 -55.2988 	 2.03347 	 -15.4296 	 
H 	 -54.282 	 2.62894 	 -14.0399 	 
S 	 -61.1678 	 8.55502 	 -16.5736 	 
C 	 -60.8697 	 9.52134 	 -17.9718 	 
C 	 -59.5996 	 9.27722 	 -18.4538 	 
C 	 -58.916 	 8.35039 	 -17.6781 	 
C 	 -59.5415 	 7.9669 	 -16.4733 	 
H 	 -59.2382 	 9.68852 	 -19.363 	 
C 	 -57.4844 	 7.96577 	 -18.036 	 
H 	 -57.1708 	 7.36818 	 -17.2521 	 
H 	 -56.847 	 8.83999 	 -18.0888 	 
C 	 -57.3165 	 7.27633 	 -19.3767 	 
H 	 -56.2296 	 7.13046 	 -19.4718 	 
H 	 -57.6481 	 7.98474 	 -20.1164 	 
C 	 -58.0819 	 6.02519 	 -19.6073 	 
H 	 -57.9193 	 5.25412 	 -18.8789 	 
H 	 -57.9979 	 5.70939 	 -20.6223 	 
H 	 -59.1079 	 6.3157 	 -19.4883 	 
H 	 -58.7306 	 5.06181 	 -12.4694 	 
H 	 -61.6659 	 10.0766 	 -18.4289 	 
