34

S 	 -129.662 	 26.8001 	 -22.6457 	 
C 	 -131.219 	 26.3869 	 -23.4452 	 
C 	 -132.121 	 27.4342 	 -23.4301 	 
C 	 -131.516 	 28.5746 	 -22.8466 	 
C 	 -130.205 	 28.4268 	 -22.4629 	 
H 	 -132.009 	 29.5334 	 -22.6681 	 
C 	 -133.531 	 27.5089 	 -24.0086 	 
H 	 -133.569 	 26.7185 	 -24.819 	 
H 	 -133.56 	 28.372 	 -24.671 	 
C 	 -134.705 	 27.5569 	 -23.0484 	 
H 	 -134.685 	 26.6544 	 -22.465 	 
H 	 -134.618 	 28.3028 	 -22.2916 	 
C 	 -136.1 	 27.5485 	 -23.6679 	 
H 	 -136.465 	 28.3927 	 -24.2955 	 
H 	 -136.319 	 26.6258 	 -24.0158 	 
H 	 -136.711 	 27.623 	 -22.7315 	 
S 	 -128.382 	 28.9721 	 -20.53 	 
C 	 -127.843 	 30.5758 	 -20.2285 	 
C 	 -128.51 	 31.4658 	 -21.0322 	 
C 	 -129.39 	 30.865 	 -22.0357 	 
C 	 -129.35 	 29.4762 	 -21.885 	 
H 	 -128.297 	 32.5049 	 -20.9111 	 
C 	 -130.273 	 31.7189 	 -22.9629 	 
H 	 -130.139 	 32.8186 	 -22.7547 	 
H 	 -131.345 	 31.4054 	 -22.7449 	 
C 	 -130.01 	 31.4896 	 -24.4363 	 
H 	 -130.852 	 31.8939 	 -24.9605 	 
H 	 -130.129 	 30.462 	 -24.7837 	 
C 	 -128.669 	 31.9497 	 -24.9406 	 
H 	 -128.457 	 32.9807 	 -24.6529 	 
H 	 -128.568 	 31.7603 	 -26.0903 	 
H 	 -127.882 	 31.4474 	 -24.4565 	 
H 	 -131.623 	 25.466 	 -23.7744 	 
H 	 -127.169 	 30.7067 	 -19.3828 	 
