34

S 	 -108.125 	 61.1187 	 -101.581 	 
C 	 -109.114 	 60.0123 	 -100.61 	 
C 	 -110.154 	 60.6383 	 -100.006 	 
C 	 -110.201 	 62.0284 	 -100.35 	 
C 	 -109.096 	 62.4707 	 -101.063 	 
H 	 -110.943 	 62.7379 	 -100.012 	 
C 	 -111.07 	 59.8454 	 -99.0899 	 
H 	 -110.857 	 58.755 	 -99.1069 	 
H 	 -112.087 	 59.9627 	 -99.495 	 
C 	 -111.282 	 60.1632 	 -97.5485 	 
H 	 -110.33 	 60.2542 	 -97.0696 	 
H 	 -111.798 	 61.173 	 -97.5627 	 
C 	 -112.176 	 59.2097 	 -96.8257 	 
H 	 -111.712 	 58.2681 	 -96.5554 	 
H 	 -112.449 	 59.6553 	 -95.862 	 
H 	 -113.171 	 59.0113 	 -97.3674 	 
S 	 -108.45 	 65.0648 	 -100.519 	 
C 	 -108.101 	 66.1455 	 -101.804 	 
C 	 -108.658 	 65.7104 	 -102.977 	 
C 	 -109.179 	 64.3873 	 -102.851 	 
C 	 -108.878 	 63.7718 	 -101.633 	 
H 	 -108.552 	 66.3544 	 -103.883 	 
C 	 -109.871 	 63.7459 	 -103.987 	 
H 	 -109.19 	 62.9502 	 -104.433 	 
H 	 -110.114 	 64.4923 	 -104.764 	 
C 	 -111.197 	 63.0158 	 -103.622 	 
H 	 -111.971 	 63.6345 	 -103.142 	 
H 	 -110.954 	 62.2453 	 -102.953 	 
C 	 -111.694 	 62.3129 	 -104.839 	 
H 	 -111.513 	 61.2325 	 -104.827 	 
H 	 -111.392 	 62.7582 	 -105.761 	 
H 	 -112.816 	 62.415 	 -104.938 	 
H 	 -108.782 	 58.9805 	 -100.379 	 
H 	 -107.702 	 67.1674 	 -101.807 	 
