34

S 	 -95.7696 	 45.125 	 -90.6935 	 
C 	 -95.2131 	 44.226 	 -89.3384 	 
C 	 -95.6065 	 42.8982 	 -89.2767 	 
C 	 -96.4185 	 42.587 	 -90.427 	 
C 	 -96.6284 	 43.6722 	 -91.251 	 
H 	 -97.0047 	 41.6874 	 -90.5851 	 
C 	 -95.3524 	 41.7868 	 -88.3477 	 
H 	 -94.9057 	 40.8627 	 -88.8566 	 
H 	 -96.2519 	 41.3932 	 -87.8644 	 
C 	 -94.4004 	 42.1333 	 -87.2164 	 
H 	 -93.4395 	 42.5154 	 -87.6945 	 
H 	 -94.7707 	 42.872 	 -86.4672 	 
C 	 -94.0346 	 40.9234 	 -86.3062 	 
H 	 -93.4172 	 41.2585 	 -85.4872 	 
H 	 -94.931 	 40.4524 	 -85.8614 	 
H 	 -93.4735 	 40.0739 	 -86.9054 	 
S 	 -98.5441 	 45.21 	 -92.4242 	 
C 	 -99.1869 	 44.6697 	 -93.8882 	 
C 	 -98.7088 	 43.463 	 -94.3157 	 
C 	 -97.7636 	 42.9424 	 -93.4356 	 
C 	 -97.4371 	 43.8409 	 -92.4257 	 
H 	 -98.9955 	 43.073 	 -95.3405 	 
C 	 -97.0175 	 41.5958 	 -93.629 	 
H 	 -95.9467 	 41.7412 	 -93.3011 	 
H 	 -96.9199 	 41.4375 	 -94.6882 	 
C 	 -97.7489 	 40.2702 	 -93.2492 	 
H 	 -98.0967 	 40.3717 	 -92.2303 	 
H 	 -97.1406 	 39.3674 	 -93.3117 	 
C 	 -98.8909 	 39.9521 	 -94.231 	 
H 	 -99.6675 	 39.181 	 -93.7663 	 
H 	 -98.6564 	 39.6427 	 -95.2677 	 
H 	 -99.443 	 40.8597 	 -94.3648 	 
H 	 -94.527 	 44.5929 	 -88.6296 	 
H 	 -99.8602 	 45.2403 	 -94.5647 	 
