34

S 	 -79.2781 	 0.60401 	 -65.0823 	 
C 	 -77.9209 	 1.64929 	 -65.0213 	 
C 	 -76.8159 	 1.16734 	 -64.3002 	 
C 	 -77.1321 	 -0.0961698 	 -63.7076 	 
C 	 -78.4672 	 -0.479036 	 -63.903 	 
H 	 -76.5058 	 -0.701504 	 -63.0423 	 
C 	 -75.5271 	 1.87329 	 -64.0573 	 
H 	 -75.1929 	 2.5513 	 -64.8754 	 
H 	 -74.7067 	 1.18146 	 -64.1373 	 
C 	 -75.5168 	 2.66925 	 -62.7169 	 
H 	 -76.3254 	 3.4579 	 -62.7893 	 
H 	 -75.7516 	 1.95623 	 -61.8988 	 
C 	 -74.1669 	 3.35238 	 -62.4082 	 
H 	 -73.4122 	 2.6284 	 -62.5513 	 
H 	 -73.8959 	 4.06559 	 -63.2297 	 
H 	 -74.1299 	 3.85871 	 -61.4664 	 
S 	 -78.2071 	 -2.68847 	 -62.2626 	 
C 	 -79.5305 	 -3.8802 	 -62.1533 	 
C 	 -80.5655 	 -3.48507 	 -62.9596 	 
C 	 -80.2803 	 -2.32073 	 -63.8169 	 
C 	 -79.0201 	 -1.7681 	 -63.5602 	 
H 	 -81.5191 	 -4.00529 	 -62.9365 	 
C 	 -81.3847 	 -1.78001 	 -64.6837 	 
H 	 -80.9508 	 -1.41567 	 -65.6691 	 
H 	 -81.7216 	 -0.913024 	 -64.095 	 
C 	 -82.4638 	 -2.72039 	 -65.1912 	 
H 	 -83.296 	 -2.17934 	 -65.6148 	 
H 	 -82.8883 	 -3.22231 	 -64.3468 	 
C 	 -81.9184 	 -3.77727 	 -66.1688 	 
H 	 -81.1985 	 -4.43334 	 -65.6812 	 
H 	 -81.6146 	 -3.31918 	 -67.1219 	 
H 	 -82.841 	 -4.32195 	 -66.4552 	 
H 	 -77.9233 	 2.57933 	 -65.7374 	 
H 	 -79.62 	 -4.7043 	 -61.4816 	 
