34

S 	 -65.4315 	 1.3814 	 -74.9783 	 
C 	 -66.5508 	 2.583 	 -75.5846 	 
C 	 -67.7796 	 2.48007 	 -74.9887 	 
C 	 -67.9 	 1.49021 	 -74.0253 	 
C 	 -66.6295 	 0.96128 	 -73.7576 	 
H 	 -68.7474 	 1.20912 	 -73.4863 	 
C 	 -69.0529 	 3.09308 	 -75.4677 	 
H 	 -69.6922 	 2.32534 	 -75.8655 	 
H 	 -68.7665 	 3.61117 	 -76.3736 	 
C 	 -69.702 	 4.13672 	 -74.4083 	 
H 	 -70.0272 	 3.68528 	 -73.4852 	 
H 	 -68.97 	 4.90588 	 -74.1738 	 
C 	 -70.8649 	 4.89805 	 -75.0563 	 
H 	 -71.4912 	 4.33713 	 -75.6465 	 
H 	 -71.4889 	 5.40622 	 -74.286 	 
H 	 -70.4519 	 5.76961 	 -75.5748 	 
S 	 -65.3319 	 -1.4319 	 -73.146 	 
C 	 -65.6187 	 -2.14256 	 -71.6227 	 
C 	 -66.4859 	 -1.43448 	 -70.7718 	 
C 	 -66.947 	 -0.28927 	 -71.4637 	 
C 	 -66.3709 	 -0.0956327 	 -72.7236 	 
H 	 -66.7784 	 -1.75089 	 -69.838 	 
C 	 -67.8228 	 0.744335 	 -70.7004 	 
H 	 -68.168 	 1.55685 	 -71.2478 	 
H 	 -67.158 	 1.09908 	 -69.901 	 
C 	 -69.0183 	 -0.000429962 	 -70.0723 	 
H 	 -69.5734 	 0.783955 	 -69.3987 	 
H 	 -68.6961 	 -0.753782 	 -69.3025 	 
C 	 -70.0252 	 -0.53504 	 -71.0834 	 
H 	 -70.8703 	 -1.10715 	 -70.72 	 
H 	 -69.478 	 -1.31703 	 -71.6632 	 
H 	 -70.479 	 0.13745 	 -71.8252 	 
H 	 -66.2992 	 3.30424 	 -76.346 	 
H 	 -65.2237 	 -3.14607 	 -71.3928 	 
