34

S 	 33.4532 	 -31.5384 	 -114.173 	 
C 	 32.6059 	 -32.2886 	 -112.863 	 
C 	 33.4656 	 -32.8621 	 -111.958 	 
C 	 34.8061 	 -32.6963 	 -112.304 	 
C 	 34.9815 	 -31.9507 	 -113.494 	 
H 	 35.6495 	 -33.0316 	 -111.651 	 
C 	 33.0068 	 -33.9016 	 -110.899 	 
H 	 33.4286 	 -34.8613 	 -111.127 	 
H 	 31.9109 	 -34.0734 	 -111.042 	 
C 	 33.1102 	 -33.4558 	 -109.439 	 
H 	 34.1282 	 -33.0585 	 -109.264 	 
H 	 32.3867 	 -32.6604 	 -109.286 	 
C 	 32.7736 	 -34.6002 	 -108.444 	 
H 	 32.0448 	 -35.335 	 -108.615 	 
H 	 33.7036 	 -34.9919 	 -108.137 	 
H 	 32.5127 	 -34.1346 	 -107.489 	 
S 	 36.2757 	 -32.0847 	 -115.87 	 
C 	 37.9205 	 -31.647 	 -115.943 	 
C 	 38.5084 	 -31.2392 	 -114.778 	 
C 	 37.5213 	 -31.2674 	 -113.715 	 
C 	 36.2534 	 -31.691 	 -114.139 	 
H 	 39.5246 	 -30.9663 	 -114.599 	 
C 	 37.796 	 -30.8132 	 -112.336 	 
H 	 36.8486 	 -30.9682 	 -111.772 	 
H 	 38.1278 	 -29.77 	 -112.404 	 
C 	 38.9316 	 -31.7729 	 -111.837 	 
H 	 39.8397 	 -31.6128 	 -112.477 	 
H 	 38.6695 	 -32.7676 	 -111.959 	 
C 	 39.2704 	 -31.5616 	 -110.294 	 
H 	 39.3615 	 -30.5338 	 -110.01 	 
H 	 40.0186 	 -32.1541 	 -109.784 	 
H 	 38.3948 	 -31.8323 	 -109.765 	 
H 	 31.6601 	 -32.7578 	 -112.947 	 
H 	 38.4009 	 -31.4611 	 -116.878 	 
