34

S 	 -50.1839 	 13.4004 	 28.2334 	 
C 	 -48.9711 	 12.9251 	 26.9502 	 
C 	 -49.4615 	 12.8812 	 25.672 	 
C 	 -50.8417 	 13.2849 	 25.7209 	 
C 	 -51.3795 	 13.6249 	 26.9616 	 
H 	 -51.5077 	 13.3946 	 24.8681 	 
C 	 -48.7378 	 12.5237 	 24.3585 	 
H 	 -48.2065 	 13.381 	 23.9683 	 
H 	 -49.4558 	 12.3252 	 23.5512 	 
C 	 -47.901 	 11.2945 	 24.4203 	 
H 	 -47.008 	 11.3329 	 25.0488 	 
H 	 -48.5522 	 10.3908 	 24.5245 	 
C 	 -47.1968 	 11.2594 	 22.9822 	 
H 	 -47.9261 	 11.031 	 22.1933 	 
H 	 -46.7662 	 12.2801 	 22.7703 	 
H 	 -46.432 	 10.5194 	 22.8662 	 
S 	 -52.9685 	 15.5476 	 28.0462 	 
C 	 -54.6638 	 15.3904 	 27.8603 	 
C 	 -55.0689 	 14.1255 	 27.4743 	 
C 	 -53.9568 	 13.334 	 27.1349 	 
C 	 -52.7369 	 13.9879 	 27.3696 	 
H 	 -56.1462 	 13.8547 	 27.4158 	 
C 	 -54.0218 	 12.0319 	 26.3761 	 
H 	 -53.3475 	 12.0685 	 25.5422 	 
H 	 -55.0751 	 12.0499 	 25.9106 	 
C 	 -53.6785 	 10.8779 	 27.2316 	 
H 	 -54.4092 	 10.8554 	 27.9959 	 
H 	 -52.7071 	 11.1384 	 27.6054 	 
C 	 -53.5969 	 9.44143 	 26.6363 	 
H 	 -53.3954 	 8.7265 	 27.4478 	 
H 	 -52.837 	 9.30259 	 25.8668 	 
H 	 -54.5352 	 9.132 	 26.1463 	 
H 	 -47.9449 	 12.8192 	 27.2238 	 
H 	 -55.4029 	 16.172 	 27.9859 	 
