34

S 	 -45.718 	 -9.07107 	 15.6906 	 
C 	 -45.9071 	 -9.65915 	 17.3239 	 
C 	 -44.7184 	 -10.0572 	 17.8802 	 
C 	 -43.6744 	 -10.0106 	 16.9292 	 
C 	 -43.9986 	 -9.5825 	 15.6505 	 
H 	 -42.6647 	 -10.1891 	 17.0882 	 
C 	 -44.4587 	 -10.3948 	 19.2992 	 
H 	 -43.4726 	 -10.3374 	 19.6009 	 
H 	 -44.7625 	 -11.4101 	 19.424 	 
C 	 -45.2442 	 -9.44168 	 20.2612 	 
H 	 -44.9733 	 -8.42524 	 20.1811 	 
H 	 -46.325 	 -9.48943 	 20.0425 	 
C 	 -45.1648 	 -9.94966 	 21.7731 	 
H 	 -45.6491 	 -9.21156 	 22.4222 	 
H 	 -45.7602 	 -10.8931 	 21.9637 	 
H 	 -44.1423 	 -9.93921 	 22.015 	 
S 	 -41.8149 	 -10.4522 	 14.0612 	 
C 	 -41.3488 	 -9.41431 	 12.7723 	 
C 	 -42.1923 	 -8.2479 	 12.6717 	 
C 	 -43.1191 	 -8.10053 	 13.7677 	 
C 	 -43.1346 	 -9.29636 	 14.5167 	 
H 	 -41.9605 	 -7.51462 	 11.8796 	 
C 	 -43.8822 	 -6.81292 	 13.9834 	 
H 	 -44.6147 	 -6.84669 	 14.769 	 
H 	 -44.4455 	 -6.52356 	 13.124 	 
C 	 -42.8967 	 -5.60588 	 14.2094 	 
H 	 -43.5469 	 -4.70991 	 14.0193 	 
H 	 -42.0488 	 -5.67384 	 13.5032 	 
C 	 -42.4582 	 -5.48944 	 15.6671 	 
H 	 -41.9805 	 -6.37879 	 15.9775 	 
H 	 -43.3301 	 -5.36203 	 16.2946 	 
H 	 -41.7621 	 -4.66394 	 15.7563 	 
H 	 -46.8491 	 -9.4205 	 17.8319 	 
H 	 -40.6466 	 -9.67431 	 12.0164 	 
