34

S 	 -87.0202 	 -32.8499 	 -67.6412 	 
C 	 -86.505 	 -34.2088 	 -68.6248 	 
C 	 -87.3456 	 -35.2733 	 -68.4147 	 
C 	 -88.3082 	 -35.0661 	 -67.3985 	 
C 	 -88.3536 	 -33.7212 	 -66.9668 	 
H 	 -89.0147 	 -35.7293 	 -66.9899 	 
C 	 -87.4053 	 -36.6563 	 -69.1526 	 
H 	 -88.1089 	 -37.3309 	 -68.7212 	 
H 	 -86.3181 	 -37.1384 	 -69.1031 	 
C 	 -87.7543 	 -36.482 	 -70.6125 	 
H 	 -87.337 	 -35.5573 	 -70.9191 	 
H 	 -87.2529 	 -37.1778 	 -71.3262 	 
C 	 -89.2194 	 -36.3188 	 -70.934 	 
H 	 -89.514 	 -35.3467 	 -70.7233 	 
H 	 -89.4517 	 -36.6548 	 -71.9516 	 
H 	 -89.9081 	 -36.8312 	 -70.3595 	 
S 	 -88.1957 	 -32.6848 	 -64.4655 	 
C 	 -89.588 	 -32.1498 	 -63.6167 	 
C 	 -90.7444 	 -32.5167 	 -64.3218 	 
C 	 -90.5011 	 -33.0597 	 -65.6322 	 
C 	 -89.1343 	 -33.1273 	 -65.8548 	 
H 	 -91.656 	 -32.3307 	 -63.8729 	 
C 	 -91.5716 	 -33.6977 	 -66.4599 	 
H 	 -92.3461 	 -34.226 	 -65.8521 	 
H 	 -91.1008 	 -34.5163 	 -67.0635 	 
C 	 -92.3408 	 -32.793 	 -67.471 	 
H 	 -92.798 	 -31.8936 	 -67.0283 	 
H 	 -93.2042 	 -33.3535 	 -67.9547 	 
C 	 -91.5634 	 -32.1155 	 -68.6488 	 
H 	 -92.2337 	 -31.4851 	 -69.2104 	 
H 	 -91.0225 	 -32.8352 	 -69.3087 	 
H 	 -90.6698 	 -31.5413 	 -68.3111 	 
H 	 -85.8341 	 -34.1659 	 -69.5224 	 
H 	 -89.7907 	 -31.7702 	 -62.6432 	 
