34

S 	 15.4813 	 -11.9296 	 -128.075 	 
C 	 14.1231 	 -12.2742 	 -129.117 	 
C 	 13.662 	 -13.5696 	 -129.013 	 
C 	 14.5404 	 -14.3878 	 -128.194 	 
C 	 15.5568 	 -13.6934 	 -127.611 	 
H 	 14.3798 	 -15.4317 	 -128.066 	 
C 	 12.3227 	 -14.0756 	 -129.574 	 
H 	 12.5794 	 -15.1158 	 -129.72 	 
H 	 12.088 	 -13.6561 	 -130.547 	 
C 	 11.1112 	 -14.0519 	 -128.614 	 
H 	 10.2615 	 -14.675 	 -128.903 	 
H 	 11.3582 	 -14.563 	 -127.632 	 
C 	 10.6606 	 -12.6702 	 -128.208 	 
H 	 9.83521 	 -12.7345 	 -127.465 	 
H 	 11.393 	 -12.0896 	 -127.731 	 
H 	 10.336 	 -11.9723 	 -129.049 	 
S 	 18.089 	 -14.7957 	 -127.565 	 
C 	 18.6315 	 -15.576 	 -126.077 	 
C 	 17.7866 	 -15.4575 	 -125.05 	 
C 	 16.6543 	 -14.6842 	 -125.422 	 
C 	 16.5211 	 -14.2999 	 -126.776 	 
H 	 18.109 	 -15.8903 	 -124.115 	 
C 	 15.5677 	 -14.4293 	 -124.484 	 
H 	 14.6228 	 -14.0662 	 -124.913 	 
H 	 15.7958 	 -13.6153 	 -123.829 	 
C 	 15.2135 	 -15.6489 	 -123.622 	 
H 	 14.5129 	 -15.3024 	 -122.762 	 
H 	 16.0937 	 -16.0465 	 -123.09 	 
C 	 14.691 	 -16.9058 	 -124.462 	 
H 	 14.7332 	 -17.908 	 -123.896 	 
H 	 15.2393 	 -17.0948 	 -125.375 	 
H 	 13.6259 	 -16.8695 	 -124.659 	 
H 	 13.5391 	 -11.5614 	 -129.728 	 
H 	 19.6347 	 -16.0158 	 -126.02 	 
