34

S 	 -121.256 	 62.4471 	 -48.1442 	 
C 	 -121.416 	 61.3518 	 -46.7638 	 
C 	 -122.55 	 60.6243 	 -46.9052 	 
C 	 -123.296 	 61.1172 	 -47.9625 	 
C 	 -122.837 	 62.2456 	 -48.6764 	 
H 	 -124.192 	 60.6961 	 -48.2444 	 
C 	 -122.993 	 59.5382 	 -45.9559 	 
H 	 -122.263 	 58.7712 	 -45.8668 	 
H 	 -123.943 	 59.0782 	 -46.2987 	 
C 	 -123.381 	 60.1263 	 -44.5833 	 
H 	 -123.452 	 59.3914 	 -43.7849 	 
H 	 -122.655 	 60.7759 	 -44.1761 	 
C 	 -124.67 	 60.9182 	 -44.5916 	 
H 	 -124.59 	 61.7955 	 -45.2996 	 
H 	 -125.43 	 60.2508 	 -44.9134 	 
H 	 -125.036 	 61.3391 	 -43.6743 	 
S 	 -122.538 	 63.2518 	 -51.2119 	 
C 	 -123.911 	 63.3328 	 -52.2742 	 
C 	 -125.033 	 63.399 	 -51.5023 	 
C 	 -124.859 	 63.1076 	 -50.1572 	 
C 	 -123.524 	 62.8724 	 -49.8503 	 
H 	 -125.983 	 63.5796 	 -51.9388 	 
C 	 -125.92 	 63.3093 	 -49.1839 	 
H 	 -126.113 	 64.3621 	 -49.1596 	 
H 	 -125.368 	 63.1433 	 -48.2528 	 
C 	 -127.247 	 62.4769 	 -49.2706 	 
H 	 -127.084 	 61.4729 	 -49.1016 	 
H 	 -127.52 	 62.5218 	 -50.2895 	 
C 	 -128.22 	 62.9025 	 -48.1354 	 
H 	 -127.734 	 63.1241 	 -47.1951 	 
H 	 -129.017 	 62.1426 	 -48.0736 	 
H 	 -128.734 	 63.8194 	 -48.4641 	 
H 	 -120.757 	 61.318 	 -45.9463 	 
H 	 -123.935 	 63.4285 	 -53.3449 	 
