34

S 	 -56.5596 	 -4.14928 	 -17.7762 	 
C 	 -57.1393 	 -2.7649 	 -16.9059 	 
C 	 -58.3601 	 -3.03418 	 -16.2907 	 
C 	 -58.8585 	 -4.34479 	 -16.4066 	 
C 	 -58.0501 	 -5.12656 	 -17.265 	 
H 	 -59.8093 	 -4.76369 	 -15.9839 	 
C 	 -59.1356 	 -2.12534 	 -15.4178 	 
H 	 -58.4885 	 -1.36613 	 -14.9507 	 
H 	 -59.6702 	 -2.74435 	 -14.6294 	 
C 	 -59.9988 	 -1.28817 	 -16.3281 	 
H 	 -59.365 	 -0.92375 	 -17.1652 	 
H 	 -60.7548 	 -1.90473 	 -16.7962 	 
C 	 -60.6051 	 -0.119051 	 -15.5487 	 
H 	 -61.3632 	 0.431176 	 -16.0734 	 
H 	 -60.9633 	 -0.378071 	 -14.5558 	 
H 	 -59.8379 	 0.595013 	 -15.4078 	 
S 	 -56.8556 	 -7.52493 	 -17.5896 	 
C 	 -57.5239 	 -8.76647 	 -18.5644 	 
C 	 -58.7906 	 -8.45306 	 -18.9322 	 
C 	 -59.2386 	 -7.18535 	 -18.4429 	 
C 	 -58.2631 	 -6.51941 	 -17.7159 	 
H 	 -59.2915 	 -9.16845 	 -19.5939 	 
C 	 -60.5672 	 -6.52532 	 -18.7326 	 
H 	 -60.768 	 -5.59289 	 -18.1652 	 
H 	 -61.2833 	 -7.21309 	 -18.4156 	 
C 	 -60.649 	 -6.06547 	 -20.1586 	 
H 	 -61.619 	 -5.55742 	 -20.3179 	 
H 	 -60.783 	 -6.92638 	 -20.8077 	 
C 	 -59.5427 	 -5.11879 	 -20.6132 	 
H 	 -59.9229 	 -4.1395 	 -20.5059 	 
H 	 -59.3411 	 -5.33055 	 -21.6998 	 
H 	 -58.6709 	 -5.32737 	 -20.0181 	 
H 	 -56.6532 	 -1.76159 	 -17.0355 	 
H 	 -57.0285 	 -9.65541 	 -18.7832 	 
