34

S 	 -137.902 	 12.7549 	 -2.9907 	 
C 	 -139.018 	 11.417 	 -2.80949 	 
C 	 -138.709 	 10.6921 	 -1.65559 	 
C 	 -137.589 	 11.2253 	 -0.934352 	 
C 	 -137.093 	 12.3855 	 -1.46241 	 
H 	 -137.211 	 10.8686 	 -0.00963017 	 
C 	 -139.417 	 9.47025 	 -1.12661 	 
H 	 -140.501 	 9.71426 	 -1.12945 	 
H 	 -139.124 	 9.23801 	 -0.0298229 	 
C 	 -139.143 	 8.16994 	 -1.93309 	 
H 	 -139.725 	 8.25713 	 -2.86197 	 
H 	 -138.125 	 8.13737 	 -2.29792 	 
C 	 -139.549 	 6.93692 	 -1.06239 	 
H 	 -140.527 	 7.06858 	 -0.628542 	 
H 	 -139.527 	 5.99644 	 -1.61566 	 
H 	 -138.926 	 6.73257 	 -0.250113 	 
S 	 -136.496 	 14.9128 	 -0.432825 	 
C 	 -135.071 	 15.035 	 0.580567 	 
C 	 -134.227 	 14.0065 	 0.334405 	 
C 	 -134.823 	 12.9451 	 -0.467209 	 
C 	 -136.075 	 13.2583 	 -0.960517 	 
H 	 -133.252 	 14.057 	 0.773187 	 
C 	 -134.22 	 11.6043 	 -0.581314 	 
H 	 -133.471 	 11.7162 	 -1.31935 	 
H 	 -135.072 	 11.0078 	 -0.969952 	 
C 	 -133.629 	 10.9682 	 0.699902 	 
H 	 -134.416 	 10.8193 	 1.48493 	 
H 	 -132.965 	 11.6521 	 1.224 	 
C 	 -132.915 	 9.6146 	 0.396055 	 
H 	 -132.128 	 9.71977 	 -0.263649 	 
H 	 -133.564 	 8.93787 	 -0.0903813 	 
H 	 -132.552 	 9.27136 	 1.30256 	 
H 	 -139.969 	 11.342 	 -3.41496 	 
H 	 -134.751 	 15.8105 	 1.25267 	 
