34

S 	 -56.9224 	 4.12539 	 -32.0926 	 
C 	 -57.4439 	 4.05866 	 -33.7807 	 
C 	 -56.8621 	 5.1078 	 -34.4687 	 
C 	 -55.9748 	 5.92965 	 -33.7251 	 
C 	 -55.7935 	 5.45042 	 -32.4029 	 
H 	 -55.4792 	 6.76291 	 -34.0522 	 
C 	 -57.0875 	 5.32984 	 -35.9495 	 
H 	 -56.8876 	 6.38689 	 -36.1405 	 
H 	 -58.1683 	 5.0321 	 -36.2686 	 
C 	 -56.0455 	 4.66244 	 -36.7789 	 
H 	 -55.0699 	 4.91581 	 -36.5609 	 
H 	 -56.0162 	 3.58967 	 -36.6326 	 
C 	 -56.2039 	 4.86926 	 -38.293 	 
H 	 -55.1943 	 4.96665 	 -38.7181 	 
H 	 -56.7307 	 4.07102 	 -38.7863 	 
H 	 -56.7803 	 5.77726 	 -38.5789 	 
S 	 -53.8556 	 4.5795 	 -30.7655 	 
C 	 -52.7268 	 5.74242 	 -30.1768 	 
C 	 -53.0958 	 7.0609 	 -30.3395 	 
C 	 -54.2482 	 7.14506 	 -31.2212 	 
C 	 -54.7507 	 5.85834 	 -31.4533 	 
H 	 -52.5115 	 7.92409 	 -30.0077 	 
C 	 -54.8611 	 8.45504 	 -31.6594 	 
H 	 -54.8768 	 9.16016 	 -30.7991 	 
H 	 -55.9027 	 8.31808 	 -31.9603 	 
C 	 -54.0487 	 9.22024 	 -32.7894 	 
H 	 -54.0186 	 8.5924 	 -33.6186 	 
H 	 -52.9913 	 9.36367 	 -32.525 	 
C 	 -54.5708 	 10.5963 	 -33.2692 	 
H 	 -55.6785 	 10.5786 	 -33.2614 	 
H 	 -54.3364 	 10.6736 	 -34.3051 	 
H 	 -54.0192 	 11.4429 	 -32.8716 	 
H 	 -58.2135 	 3.53738 	 -34.2604 	 
H 	 -51.8446 	 5.40882 	 -29.7183 	 
