34

S 	 -59.737 	 -2.57885 	 -29.4487 	 
C 	 -59.3613 	 -3.56162 	 -28.0419 	 
C 	 -58.5799 	 -2.95522 	 -27.1198 	 
C 	 -58.077 	 -1.74149 	 -27.6443 	 
C 	 -58.5651 	 -1.31902 	 -28.9053 	 
H 	 -57.421 	 -1.01612 	 -27.1351 	 
C 	 -58.0171 	 -3.5506 	 -25.9072 	 
H 	 -58.854 	 -3.90512 	 -25.3152 	 
H 	 -57.635 	 -2.7432 	 -25.2163 	 
C 	 -57.0242 	 -4.76628 	 -26.1402 	 
H 	 -57.3518 	 -5.34685 	 -27.0403 	 
H 	 -56.0234 	 -4.27403 	 -26.4716 	 
C 	 -56.6605 	 -5.50726 	 -24.8101 	 
H 	 -56.2504 	 -4.78348 	 -24.1515 	 
H 	 -57.5707 	 -5.95858 	 -24.3531 	 
H 	 -55.8691 	 -6.31656 	 -24.8726 	 
S 	 -58.4934 	 -0.297727 	 -31.5093 	 
C 	 -58.0948 	 1.33977 	 -31.722 	 
C 	 -57.8874 	 2.05718 	 -30.5397 	 
C 	 -57.997 	 1.18592 	 -29.3809 	 
C 	 -58.315 	 -0.146024 	 -29.7339 	 
H 	 -57.7252 	 3.10551 	 -30.5617 	 
C 	 -57.7733 	 1.65927 	 -27.9143 	 
H 	 -57.3027 	 2.69209 	 -28.0055 	 
H 	 -57.1524 	 1.05563 	 -27.3219 	 
C 	 -59.1101 	 1.70731 	 -27.0536 	 
H 	 -58.8723 	 2.39847 	 -26.233 	 
H 	 -59.3127 	 0.739647 	 -26.5564 	 
C 	 -60.4084 	 2.15481 	 -27.8073 	 
H 	 -61.2502 	 1.69301 	 -27.2981 	 
H 	 -60.3232 	 1.64345 	 -28.7936 	 
H 	 -60.6534 	 3.1688 	 -27.8598 	 
H 	 -59.8649 	 -4.54534 	 -27.9551 	 
H 	 -57.7939 	 1.88363 	 -32.6001 	 
