34

S 	 -101 	 3.5536 	 -120.443 	 
C 	 -101.415 	 3.14042 	 -122.045 	 
C 	 -100.4 	 2.34546 	 -122.614 	 
C 	 -99.3763 	 2.08344 	 -121.671 	 
C 	 -99.426 	 2.83832 	 -120.5 	 
H 	 -98.6049 	 1.38373 	 -121.834 	 
C 	 -100.408 	 1.86642 	 -124.064 	 
H 	 -99.8966 	 2.54635 	 -124.716 	 
H 	 -101.458 	 1.89269 	 -124.443 	 
C 	 -99.7079 	 0.442607 	 -124.192 	 
H 	 -98.6792 	 0.437154 	 -123.928 	 
H 	 -100.203 	 -0.359817 	 -123.592 	 
C 	 -99.8128 	 -0.0483482 	 -125.676 	 
H 	 -100.853 	 -0.0324686 	 -125.98 	 
H 	 -99.2089 	 0.618552 	 -126.321 	 
H 	 -99.3483 	 -0.986536 	 -125.723 	 
S 	 -98.8475 	 2.55958 	 -117.875 	 
C 	 -97.2022 	 2.4619 	 -117.285 	 
C 	 -96.2827 	 2.55423 	 -118.301 	 
C 	 -96.9386 	 2.79667 	 -119.566 	 
C 	 -98.3684 	 2.88065 	 -119.477 	 
H 	 -95.183 	 2.64856 	 -118.141 	 
C 	 -96.1871 	 3.0835 	 -120.811 	 
H 	 -96.7667 	 3.03902 	 -121.708 	 
H 	 -95.462 	 2.27118 	 -120.832 	 
C 	 -95.5934 	 4.48742 	 -120.83 	 
H 	 -94.9111 	 4.64408 	 -120.032 	 
H 	 -96.4256 	 5.22301 	 -120.791 	 
C 	 -94.6623 	 4.68593 	 -122.086 	 
H 	 -93.9763 	 3.85823 	 -122.214 	 
H 	 -93.9934 	 5.58648 	 -122.097 	 
H 	 -95.2323 	 4.71885 	 -122.978 	 
H 	 -102.328 	 3.46418 	 -122.525 	 
H 	 -96.8624 	 2.3477 	 -116.239 	 
