34

S 	 -125.88 	 66.5725 	 -48.6657 	 
C 	 -124.465 	 66.5577 	 -49.7208 	 
C 	 -124.668 	 65.8381 	 -50.8943 	 
C 	 -126.006 	 65.3427 	 -50.908 	 
C 	 -126.826 	 65.7657 	 -49.8851 	 
H 	 -126.553 	 64.878 	 -51.7307 	 
C 	 -123.59 	 65.4891 	 -51.8822 	 
H 	 -122.712 	 66.0586 	 -51.6356 	 
H 	 -123.953 	 65.8418 	 -52.8424 	 
C 	 -123.178 	 63.9952 	 -52.0845 	 
H 	 -122.958 	 63.3791 	 -51.1475 	 
H 	 -124.059 	 63.3507 	 -52.3383 	 
C 	 -122.013 	 63.8413 	 -53.0741 	 
H 	 -122.005 	 64.5876 	 -53.8524 	 
H 	 -121.07 	 64.0018 	 -52.55 	 
H 	 -122.048 	 62.7558 	 -53.4318 	 
S 	 -128.672 	 63.6959 	 -49.6969 	 
C 	 -130.397 	 64.0758 	 -49.5863 	 
C 	 -130.637 	 65.4288 	 -49.5467 	 
C 	 -129.454 	 66.2307 	 -49.6164 	 
C 	 -128.299 	 65.455 	 -49.8388 	 
H 	 -131.61 	 65.7331 	 -49.3435 	 
C 	 -129.476 	 67.7947 	 -49.5115 	 
H 	 -129.819 	 68.2167 	 -50.4393 	 
H 	 -128.546 	 68.2748 	 -49.3659 	 
C 	 -130.61 	 68.3358 	 -48.5772 	 
H 	 -130.559 	 67.7503 	 -47.6646 	 
H 	 -131.656 	 68.1738 	 -48.9696 	 
C 	 -130.394 	 69.7875 	 -48.2813 	 
H 	 -130.681 	 70.4374 	 -49.1088 	 
H 	 -129.365 	 69.9287 	 -48.026 	 
H 	 -131.08 	 70.176 	 -47.4772 	 
H 	 -123.537 	 66.876 	 -49.4652 	 
H 	 -131.158 	 63.2911 	 -49.4539 	 
