34

S 	 26.6993 	 -30.4144 	 -131.295 	 
C 	 25.3693 	 -29.3084 	 -131.488 	 
C 	 25.7246 	 -27.9362 	 -131.361 	 
C 	 27.1619 	 -27.8395 	 -131.118 	 
C 	 27.8127 	 -29.0557 	 -131.037 	 
H 	 27.6779 	 -26.9605 	 -130.823 	 
C 	 24.7877 	 -26.7403 	 -131.32 	 
H 	 25.2447 	 -25.9753 	 -130.723 	 
H 	 23.8632 	 -27.0157 	 -130.792 	 
C 	 24.3714 	 -26.2746 	 -132.702 	 
H 	 25.2363 	 -25.9763 	 -133.344 	 
H 	 24.0163 	 -27.1601 	 -133.219 	 
C 	 23.4664 	 -25.0007 	 -132.765 	 
H 	 24.0158 	 -24.1378 	 -132.394 	 
H 	 23.1146 	 -24.8575 	 -133.781 	 
H 	 22.626 	 -25.268 	 -132.117 	 
S 	 29.1092 	 -29.9361 	 -128.842 	 
C 	 30.7863 	 -29.599 	 -128.591 	 
C 	 31.2792 	 -28.82 	 -129.659 	 
C 	 30.3873 	 -28.5944 	 -130.752 	 
C 	 29.135 	 -29.2074 	 -130.463 	 
H 	 32.2478 	 -28.4971 	 -129.586 	 
C 	 30.7427 	 -27.8236 	 -132.021 	 
H 	 30.8641 	 -26.8116 	 -131.728 	 
H 	 29.8625 	 -27.6925 	 -132.664 	 
C 	 31.7199 	 -28.4045 	 -133.002 	 
H 	 31.3439 	 -29.3884 	 -133.143 	 
H 	 32.6766 	 -28.4123 	 -132.493 	 
C 	 31.8796 	 -27.5749 	 -134.296 	 
H 	 30.954 	 -27.4058 	 -134.931 	 
H 	 32.74 	 -27.7386 	 -134.877 	 
H 	 32.0552 	 -26.5004 	 -133.874 	 
H 	 24.3545 	 -29.6321 	 -131.457 	 
H 	 31.343 	 -30.0935 	 -127.83 	 
