34

S 	 -101.092 	 0.310727 	 -103.609 	 
C 	 -101.587 	 -0.57041 	 -105.106 	 
C 	 -102.053 	 -1.81972 	 -104.774 	 
C 	 -102.236 	 -2.0514 	 -103.397 	 
C 	 -101.782 	 -0.978192 	 -102.632 	 
H 	 -102.508 	 -3.03985 	 -102.895 	 
C 	 -102.453 	 -2.8603 	 -105.776 	 
H 	 -101.95 	 -2.55266 	 -106.632 	 
H 	 -103.511 	 -2.74035 	 -105.94 	 
C 	 -101.989 	 -4.25476 	 -105.556 	 
H 	 -100.917 	 -4.23261 	 -105.545 	 
H 	 -102.283 	 -4.64822 	 -104.568 	 
C 	 -102.588 	 -5.23176 	 -106.611 	 
H 	 -103.62 	 -5.20197 	 -106.626 	 
H 	 -102.132 	 -5.10254 	 -107.533 	 
H 	 -102.173 	 -6.1863 	 -106.322 	 
S 	 -100.134 	 -1.32273 	 -100.424 	 
C 	 -100.625 	 -0.795806 	 -98.8647 	 
C 	 -101.987 	 -0.506373 	 -98.8422 	 
C 	 -102.565 	 -0.507771 	 -100.167 	 
C 	 -101.66 	 -0.878463 	 -101.145 	 
H 	 -102.307 	 -0.212064 	 -97.846 	 
C 	 -104.024 	 -0.0884159 	 -100.388 	 
H 	 -104.206 	 0.0932349 	 -101.49 	 
H 	 -104.133 	 0.989666 	 -100.06 	 
C 	 -105.143 	 -0.952768 	 -99.7451 	 
H 	 -106.002 	 -0.443163 	 -100.161 	 
H 	 -105.183 	 -0.843078 	 -98.641 	 
C 	 -105.043 	 -2.38367 	 -100.194 	 
H 	 -105.859 	 -2.92866 	 -99.7234 	 
H 	 -104.117 	 -2.88868 	 -99.9185 	 
H 	 -105.164 	 -2.32036 	 -101.289 	 
H 	 -101.324 	 -0.24606 	 -106.06 	 
H 	 -100.024 	 -1.09616 	 -97.9981 	 
