34

S 	 29.0665 	 -29.7602 	 -130.93 	 
C 	 28.9411 	 -28.6734 	 -129.507 	 
C 	 29.0691 	 -29.3592 	 -128.334 	 
C 	 29.3542 	 -30.7423 	 -128.616 	 
C 	 29.4638 	 -31.1385 	 -129.956 	 
H 	 29.5067 	 -31.5325 	 -127.938 	 
C 	 28.748 	 -28.7888 	 -126.94 	 
H 	 28.5491 	 -29.5574 	 -126.19 	 
H 	 27.8264 	 -28.3783 	 -127.042 	 
C 	 29.7497 	 -27.7131 	 -126.419 	 
H 	 30.8485 	 -28.0809 	 -126.535 	 
H 	 29.766 	 -26.9367 	 -127.079 	 
C 	 29.4457 	 -27.3065 	 -124.994 	 
H 	 29.329 	 -28.114 	 -124.317 	 
H 	 30.3175 	 -26.8303 	 -124.58 	 
H 	 28.5793 	 -26.6206 	 -124.999 	 
S 	 29.7081 	 -32.5977 	 -132.249 	 
C 	 30.3988 	 -34.1422 	 -132.335 	 
C 	 30.7321 	 -34.5487 	 -131.056 	 
C 	 30.3357 	 -33.6696 	 -130.025 	 
C 	 29.8075 	 -32.4694 	 -130.543 	 
H 	 31.1321 	 -35.5128 	 -130.873 	 
C 	 30.7092 	 -33.8941 	 -128.576 	 
H 	 31.1432 	 -32.9714 	 -128.24 	 
H 	 31.5196 	 -34.6042 	 -128.509 	 
C 	 29.6687 	 -34.4423 	 -127.723 	 
H 	 29.3621 	 -35.4132 	 -128.083 	 
H 	 28.8105 	 -33.7733 	 -127.718 	 
C 	 30.1629 	 -34.6334 	 -126.314 	 
H 	 30.546 	 -33.6437 	 -125.991 	 
H 	 31.0138 	 -35.1765 	 -126.263 	 
H 	 29.3575 	 -34.9213 	 -125.606 	 
H 	 28.6264 	 -27.6047 	 -129.472 	 
H 	 30.5649 	 -34.6881 	 -133.273 	 
