34

S 	 -128.23 	 28.5086 	 -111.724 	 
C 	 -127.421 	 27.0902 	 -112.416 	 
C 	 -126.823 	 27.4107 	 -113.627 	 
C 	 -126.95 	 28.7622 	 -114.011 	 
C 	 -127.696 	 29.4907 	 -113.174 	 
H 	 -126.554 	 29.1574 	 -114.969 	 
C 	 -126.192 	 26.3801 	 -114.56 	 
H 	 -126.211 	 26.562 	 -115.659 	 
H 	 -126.704 	 25.4283 	 -114.536 	 
C 	 -124.742 	 26.0789 	 -114.116 	 
H 	 -124.55 	 25.9998 	 -113.033 	 
H 	 -124.492 	 25.0539 	 -114.386 	 
C 	 -123.662 	 26.8236 	 -114.803 	 
H 	 -123.853 	 27.9165 	 -114.644 	 
H 	 -122.815 	 26.6004 	 -114.183 	 
H 	 -123.483 	 26.6313 	 -115.804 	 
S 	 -128.548 	 31.6448 	 -114.832 	 
C 	 -128.527 	 33.2595 	 -114.174 	 
C 	 -127.912 	 33.2849 	 -112.931 	 
C 	 -127.641 	 31.9541 	 -112.352 	 
C 	 -127.881 	 30.9398 	 -113.296 	 
H 	 -127.753 	 34.2497 	 -112.413 	 
C 	 -127.016 	 31.7031 	 -110.98 	 
H 	 -126.237 	 32.4842 	 -110.78 	 
H 	 -126.361 	 30.8154 	 -111.079 	 
C 	 -127.927 	 31.4638 	 -109.767 	 
H 	 -128.636 	 30.7184 	 -109.867 	 
H 	 -128.58 	 32.3473 	 -109.81 	 
C 	 -127.17 	 31.2283 	 -108.449 	 
H 	 -126.441 	 30.4247 	 -108.671 	 
H 	 -127.751 	 30.8856 	 -107.612 	 
H 	 -126.709 	 32.1929 	 -108.127 	 
H 	 -127.556 	 25.9964 	 -112.157 	 
H 	 -128.835 	 34.2192 	 -114.703 	 
