34

S 	 -101.371 	 -0.181792 	 -113.909 	 
C 	 -101.735 	 1.29075 	 -114.782 	 
C 	 -103.088 	 1.61136 	 -114.617 	 
C 	 -103.66 	 0.708637 	 -113.702 	 
C 	 -102.946 	 -0.309581 	 -113.171 	 
H 	 -104.723 	 0.849617 	 -113.333 	 
C 	 -103.941 	 2.70885 	 -115.266 	 
H 	 -103.427 	 3.61284 	 -115.427 	 
H 	 -104.765 	 2.86014 	 -114.576 	 
C 	 -104.411 	 2.41736 	 -116.714 	 
H 	 -103.493 	 2.367 	 -117.356 	 
H 	 -104.935 	 1.45465 	 -116.724 	 
C 	 -105.264 	 3.54373 	 -117.299 	 
H 	 -106.117 	 3.66619 	 -116.638 	 
H 	 -104.593 	 4.44508 	 -117.217 	 
H 	 -105.57 	 3.41908 	 -118.333 	 
S 	 -102.77 	 -2.97934 	 -112.214 	 
C 	 -103.324 	 -3.30227 	 -110.64 	 
C 	 -103.962 	 -2.20708 	 -110.067 	 
C 	 -103.829 	 -1.03212 	 -110.839 	 
C 	 -103.227 	 -1.29661 	 -112.108 	 
H 	 -104.405 	 -2.35888 	 -109.092 	 
C 	 -104.368 	 0.278079 	 -110.308 	 
H 	 -103.798 	 1.07569 	 -110.791 	 
H 	 -104.279 	 0.229695 	 -109.187 	 
C 	 -105.846 	 0.558377 	 -110.639 	 
H 	 -105.985 	 0.257853 	 -111.704 	 
H 	 -105.965 	 1.65112 	 -110.552 	 
C 	 -106.869 	 -0.183647 	 -109.734 	 
H 	 -106.449 	 -0.364964 	 -108.749 	 
H 	 -107.157 	 -1.21418 	 -109.965 	 
H 	 -107.748 	 0.517145 	 -109.573 	 
H 	 -101.123 	 1.89656 	 -115.442 	 
H 	 -103.324 	 -4.28465 	 -110.148 	 
