34

S 	 -144.772 	 26.5755 	 -19.5706 	 
C 	 -146.097 	 25.6648 	 -20.2744 	 
C 	 -145.724 	 24.5041 	 -20.9395 	 
C 	 -144.351 	 24.2162 	 -20.6898 	 
C 	 -143.704 	 25.2407 	 -19.9382 	 
H 	 -143.823 	 23.3566 	 -21.0533 	 
C 	 -146.688 	 23.5951 	 -21.6201 	 
H 	 -147.252 	 24.243 	 -22.3002 	 
H 	 -147.266 	 23.3881 	 -20.7503 	 
C 	 -146.19 	 22.3711 	 -22.284 	 
H 	 -145.632 	 22.6947 	 -23.2153 	 
H 	 -145.49 	 21.8179 	 -21.6344 	 
C 	 -147.335 	 21.364 	 -22.5792 	 
H 	 -148.119 	 21.7572 	 -23.286 	 
H 	 -147.074 	 20.4317 	 -22.9855 	 
H 	 -147.899 	 21.1433 	 -21.6906 	 
S 	 -141.08 	 25.8798 	 -20.6228 	 
C 	 -139.782 	 24.9222 	 -19.8099 	 
C 	 -140.224 	 24.3491 	 -18.625 	 
C 	 -141.656 	 24.369 	 -18.5644 	 
C 	 -142.307 	 25.1978 	 -19.5436 	 
H 	 -139.53 	 23.9252 	 -17.9496 	 
C 	 -142.421 	 23.8158 	 -17.4048 	 
H 	 -142.757 	 22.7723 	 -17.7491 	 
H 	 -143.377 	 24.3335 	 -17.3354 	 
C 	 -141.868 	 23.6795 	 -15.9855 	 
H 	 -142.106 	 24.7186 	 -15.4987 	 
H 	 -140.78 	 23.4895 	 -16.0575 	 
C 	 -142.597 	 22.5615 	 -15.2536 	 
H 	 -142.491 	 21.6441 	 -15.9123 	 
H 	 -143.704 	 22.7124 	 -14.9923 	 
H 	 -142.12 	 22.3469 	 -14.3371 	 
H 	 -147.051 	 26.1222 	 -20.3735 	 
H 	 -138.708 	 24.9893 	 -20.1266 	 
