34

S 	 -98.8453 	 -29.4693 	 -64.2677 	 
C 	 -98.5741 	 -27.9098 	 -64.8739 	 
C 	 -98.3862 	 -26.9706 	 -63.8727 	 
C 	 -98.4931 	 -27.5329 	 -62.5618 	 
C 	 -98.6956 	 -28.8633 	 -62.6257 	 
H 	 -98.4414 	 -26.9278 	 -61.697 	 
C 	 -98.0029 	 -25.5301 	 -64.014 	 
H 	 -97.3466 	 -25.5221 	 -64.8703 	 
H 	 -97.3349 	 -25.2386 	 -63.2422 	 
C 	 -99.1853 	 -24.5939 	 -64.2833 	 
H 	 -99.9363 	 -25.0313 	 -64.9882 	 
H 	 -99.7794 	 -24.2427 	 -63.4577 	 
C 	 -98.645 	 -23.2601 	 -64.8629 	 
H 	 -99.4498 	 -22.6428 	 -65.3471 	 
H 	 -98.1954 	 -22.7862 	 -64.0199 	 
H 	 -97.87 	 -23.3572 	 -65.6382 	 
S 	 -98.7915 	 -31.4846 	 -61.7184 	 
C 	 -99.2733 	 -31.8487 	 -60.0894 	 
C 	 -99.278 	 -30.7128 	 -59.3285 	 
C 	 -99.1567 	 -29.4889 	 -60.0938 	 
C 	 -98.9224 	 -29.7298 	 -61.4742 	 
H 	 -99.3851 	 -30.7593 	 -58.2418 	 
C 	 -99.1949 	 -28.2268 	 -59.3272 	 
H 	 -99.8897 	 -28.3262 	 -58.4741 	 
H 	 -99.6648 	 -27.5491 	 -60.0218 	 
C 	 -97.7978 	 -27.751 	 -58.8835 	 
H 	 -97.0162 	 -27.7411 	 -59.6385 	 
H 	 -97.5261 	 -28.4464 	 -58.0968 	 
C 	 -97.8541 	 -26.308 	 -58.3585 	 
H 	 -98.7189 	 -26.0111 	 -57.6756 	 
H 	 -97.89 	 -25.5165 	 -59.1977 	 
H 	 -96.9567 	 -26.1231 	 -57.8259 	 
H 	 -98.5535 	 -27.7287 	 -65.9652 	 
H 	 -99.4638 	 -32.7401 	 -59.7093 	 
