34

S 	 -117.296 	 32.5945 	 -115.425 	 
C 	 -115.819 	 32.5762 	 -114.466 	 
C 	 -115.22 	 33.8127 	 -114.373 	 
C 	 -115.999 	 34.7544 	 -115.094 	 
C 	 -117.293 	 34.338 	 -115.477 	 
H 	 -115.775 	 35.8105 	 -115.284 	 
C 	 -113.888 	 34.2265 	 -113.786 	 
H 	 -113.694 	 33.6301 	 -112.892 	 
H 	 -114.004 	 35.3026 	 -113.403 	 
C 	 -112.722 	 34.0175 	 -114.833 	 
H 	 -112.76 	 32.9476 	 -115.214 	 
H 	 -112.814 	 34.7326 	 -115.638 	 
C 	 -111.304 	 34.2504 	 -114.197 	 
H 	 -111.159 	 33.4651 	 -113.477 	 
H 	 -110.551 	 34.237 	 -114.982 	 
H 	 -111.272 	 35.2464 	 -113.739 	 
S 	 -119.594 	 34.3283 	 -116.922 	 
C 	 -120.364 	 35.7768 	 -117.474 	 
C 	 -119.796 	 36.8493 	 -116.823 	 
C 	 -118.612 	 36.5547 	 -116.052 	 
C 	 -118.323 	 35.1697 	 -116.1 	 
H 	 -120.392 	 37.7661 	 -117.068 	 
C 	 -117.877 	 37.6939 	 -115.369 	 
H 	 -118.099 	 38.5405 	 -115.958 	 
H 	 -116.8 	 37.6635 	 -115.538 	 
C 	 -118.221 	 37.8787 	 -113.86 	 
H 	 -118.208 	 36.8609 	 -113.399 	 
H 	 -119.24 	 38.2382 	 -113.75 	 
C 	 -117.301 	 38.9033 	 -113.215 	 
H 	 -117.348 	 38.9297 	 -112.035 	 
H 	 -117.477 	 39.9667 	 -113.469 	 
H 	 -116.279 	 38.7386 	 -113.634 	 
H 	 -115.315 	 31.6054 	 -114.204 	 
H 	 -121.246 	 35.8799 	 -117.995 	 
