34

S 	 -141.631 	 12.1226 	 -3.26821 	 
C 	 -142.212 	 13.067 	 -4.61189 	 
C 	 -142.825 	 12.3145 	 -5.61964 	 
C 	 -142.762 	 10.9239 	 -5.2982 	 
C 	 -142.164 	 10.6522 	 -4.0579 	 
H 	 -143.076 	 10.131 	 -5.91366 	 
C 	 -143.504 	 12.8943 	 -6.85219 	 
H 	 -143.601 	 13.9036 	 -6.62956 	 
H 	 -144.488 	 12.4297 	 -7.02614 	 
C 	 -142.631 	 12.7067 	 -8.07377 	 
H 	 -141.686 	 13.2672 	 -7.89659 	 
H 	 -142.291 	 11.6685 	 -8.27951 	 
C 	 -143.296 	 13.2666 	 -9.31596 	 
H 	 -143.768 	 14.2041 	 -9.29495 	 
H 	 -142.731 	 13.2779 	 -10.2611 	 
H 	 -144.109 	 12.572 	 -9.53803 	 
S 	 -140.599 	 8.67144 	 -2.72109 	 
C 	 -141.32 	 7.12582 	 -2.25373 	 
C 	 -142.594 	 7.08133 	 -2.82047 	 
C 	 -143.08 	 8.2804 	 -3.44461 	 
C 	 -142.124 	 9.27309 	 -3.469 	 
H 	 -143.096 	 6.1772 	 -2.58312 	 
C 	 -144.435 	 8.38233 	 -4.06818 	 
H 	 -144.471 	 8.18891 	 -5.1105 	 
H 	 -144.63 	 9.44329 	 -4.02826 	 
C 	 -145.505 	 7.57164 	 -3.441 	 
H 	 -145.466 	 7.70631 	 -2.35309 	 
H 	 -145.419 	 6.55057 	 -3.5367 	 
C 	 -146.927 	 8.05679 	 -3.89816 	 
H 	 -146.987 	 8.31198 	 -4.96297 	 
H 	 -147.042 	 8.99919 	 -3.25001 	 
H 	 -147.766 	 7.43223 	 -3.58471 	 
H 	 -142.199 	 14.1152 	 -4.73635 	 
H 	 -140.821 	 6.35168 	 -1.76239 	 
