34

S 	 -80.8132 	 -43.0282 	 -83.3103 	 
C 	 -80.901 	 -43.0599 	 -81.5857 	 
C 	 -81.0132 	 -44.3185 	 -81.0453 	 
C 	 -81.0161 	 -45.2987 	 -82.0748 	 
C 	 -80.7822 	 -44.8072 	 -83.355 	 
H 	 -81.1996 	 -46.3507 	 -81.9454 	 
C 	 -81.2274 	 -44.7281 	 -79.577 	 
H 	 -80.3005 	 -44.5678 	 -79.0901 	 
H 	 -81.3801 	 -45.8129 	 -79.5091 	 
C 	 -82.3509 	 -44.0237 	 -78.8375 	 
H 	 -82.0223 	 -42.9774 	 -78.7066 	 
H 	 -83.2829 	 -44.0933 	 -79.4824 	 
C 	 -82.7591 	 -44.5855 	 -77.4521 	 
H 	 -82.922 	 -45.6571 	 -77.5006 	 
H 	 -81.9494 	 -44.3804 	 -76.7893 	 
H 	 -83.6576 	 -44.2122 	 -76.9105 	 
S 	 -81.8346 	 -46.8702 	 -84.7368 	 
C 	 -81.2742 	 -47.0792 	 -86.4093 	 
C 	 -80.0948 	 -46.4248 	 -86.6284 	 
C 	 -79.6666 	 -45.5671 	 -85.5033 	 
C 	 -80.6927 	 -45.5677 	 -84.5629 	 
H 	 -79.5087 	 -46.6277 	 -87.4242 	 
C 	 -78.366 	 -44.7907 	 -85.4917 	 
H 	 -78.3416 	 -44.0291 	 -84.7729 	 
H 	 -78.45 	 -44.1037 	 -86.415 	 
C 	 -77.0466 	 -45.5115 	 -85.4461 	 
H 	 -76.1835 	 -44.8738 	 -85.7455 	 
H 	 -76.9051 	 -46.2528 	 -86.2551 	 
C 	 -76.689 	 -46.3258 	 -84.2171 	 
H 	 -75.6567 	 -46.6948 	 -84.3921 	 
H 	 -77.3606 	 -47.1312 	 -84.0186 	 
H 	 -76.6331 	 -45.8073 	 -83.2587 	 
H 	 -80.9696 	 -42.1208 	 -81.0197 	 
H 	 -81.7139 	 -47.8432 	 -87.0547 	 
