34

S 	 -10.3559 	 -30.0689 	 -111.198 	 
C 	 -10.3819 	 -29.3901 	 -109.647 	 
C 	 -10.2711 	 -30.3448 	 -108.645 	 
C 	 -9.89212 	 -31.5724 	 -109.163 	 
C 	 -9.78706 	 -31.567 	 -110.554 	 
H 	 -9.77607 	 -32.4297 	 -108.535 	 
C 	 -10.3665 	 -30.061 	 -107.09 	 
H 	 -11.3207 	 -30.548 	 -106.802 	 
H 	 -10.5101 	 -29.0434 	 -106.871 	 
C 	 -9.11685 	 -30.4158 	 -106.213 	 
H 	 -9.27929 	 -30.2066 	 -105.165 	 
H 	 -8.72348 	 -31.4525 	 -106.276 	 
C 	 -7.98239 	 -29.6301 	 -106.781 	 
H 	 -8.07628 	 -28.5415 	 -106.612 	 
H 	 -7.08743 	 -30.0539 	 -106.275 	 
H 	 -7.81945 	 -29.6952 	 -107.859 	 
S 	 -10.6036 	 -33.2516 	 -112.516 	 
C 	 -9.7264 	 -34.7311 	 -112.765 	 
C 	 -8.44015 	 -34.6942 	 -112.227 	 
C 	 -8.25012 	 -33.5154 	 -111.4 	 
C 	 -9.37531 	 -32.7351 	 -111.37 	 
H 	 -7.70602 	 -35.5174 	 -112.362 	 
C 	 -7.10519 	 -33.3047 	 -110.453 	 
H 	 -7.1494 	 -32.2974 	 -110.176 	 
H 	 -6.32053 	 -33.3963 	 -111.105 	 
C 	 -6.95327 	 -34.1843 	 -109.178 	 
H 	 -7.93406 	 -34.2091 	 -108.639 	 
H 	 -6.21892 	 -33.8271 	 -108.463 	 
C 	 -6.508 	 -35.5739 	 -109.601 	 
H 	 -5.64595 	 -35.5476 	 -110.287 	 
H 	 -7.33163 	 -36.169 	 -110.073 	 
H 	 -6.12065 	 -36.2001 	 -108.749 	 
H 	 -10.2921 	 -28.3247 	 -109.376 	 
H 	 -10.0371 	 -35.5608 	 -113.414 	 
