34

S 	 -125.61 	 66.791 	 -50.0007 	 
C 	 -124.221 	 67.1859 	 -51.0323 	 
C 	 -124.417 	 68.4609 	 -51.5791 	 
C 	 -125.726 	 69.0505 	 -51.2738 	 
C 	 -126.494 	 68.2569 	 -50.4463 	 
H 	 -126.062 	 70.0603 	 -51.4302 	 
C 	 -123.343 	 69.0724 	 -52.4858 	 
H 	 -123.05 	 68.2389 	 -53.1197 	 
H 	 -122.451 	 69.2634 	 -51.7904 	 
C 	 -123.75 	 70.2467 	 -53.3434 	 
H 	 -124.66 	 69.9178 	 -53.7841 	 
H 	 -124.013 	 71.1011 	 -52.6948 	 
C 	 -122.762 	 70.6481 	 -54.2737 	 
H 	 -121.708 	 70.6819 	 -53.9435 	 
H 	 -122.745 	 69.8991 	 -55.1493 	 
H 	 -122.83 	 71.6436 	 -54.7248 	 
S 	 -129.098 	 67.5878 	 -50.2172 	 
C 	 -130.204 	 68.7489 	 -49.425 	 
C 	 -129.569 	 69.901 	 -48.9658 	 
C 	 -128.152 	 69.7621 	 -49.184 	 
C 	 -127.744 	 68.5966 	 -49.8163 	 
H 	 -130.141 	 70.6558 	 -48.5395 	 
C 	 -127.259 	 70.9191 	 -48.8278 	 
H 	 -127.751 	 71.8176 	 -48.4521 	 
H 	 -126.892 	 71.3697 	 -49.7355 	 
C 	 -125.973 	 70.572 	 -48.035 	 
H 	 -125.437 	 69.7005 	 -48.4672 	 
H 	 -126.312 	 70.2355 	 -47.1233 	 
C 	 -125.023 	 71.7896 	 -47.8591 	 
H 	 -124.211 	 71.3495 	 -47.3485 	 
H 	 -125.434 	 72.6336 	 -47.3604 	 
H 	 -124.454 	 72.0651 	 -48.7304 	 
H 	 -123.34 	 66.6139 	 -51.1799 	 
H 	 -131.275 	 68.6224 	 -49.4512 	 
