34

S 	 -106.512 	 55.3461 	 -11.719 	 
C 	 -106.743 	 56.7176 	 -12.6786 	 
C 	 -106.22 	 56.445 	 -13.9525 	 
C 	 -105.811 	 55.076 	 -14.0718 	 
C 	 -105.953 	 54.2823 	 -12.9815 	 
H 	 -105.515 	 54.5776 	 -14.9854 	 
C 	 -106.165 	 57.2643 	 -15.1991 	 
H 	 -106.673 	 58.2507 	 -15.1358 	 
H 	 -106.727 	 56.8446 	 -16.0183 	 
C 	 -104.772 	 57.2877 	 -15.8417 	 
H 	 -103.98 	 57.6551 	 -15.2103 	 
H 	 -104.449 	 56.3286 	 -16.1504 	 
C 	 -104.557 	 58.2123 	 -17.0665 	 
H 	 -103.613 	 57.9412 	 -17.5645 	 
H 	 -105.208 	 58.2253 	 -17.866 	 
H 	 -104.439 	 59.2245 	 -16.8427 	 
S 	 -107.03 	 51.7406 	 -13.0083 	 
C 	 -105.945 	 50.4309 	 -12.8679 	 
C 	 -104.611 	 50.7892 	 -12.8184 	 
C 	 -104.457 	 52.2093 	 -12.8606 	 
C 	 -105.704 	 52.8555 	 -12.9002 	 
H 	 -103.859 	 50.1131 	 -12.8056 	 
C 	 -103.069 	 52.9117 	 -12.8006 	 
H 	 -103.107 	 53.9649 	 -13.1071 	 
H 	 -102.361 	 52.6394 	 -13.627 	 
C 	 -102.399 	 52.8869 	 -11.4072 	 
H 	 -101.39 	 53.4417 	 -11.572 	 
H 	 -102.199 	 51.8998 	 -11.03 	 
C 	 -103.209 	 53.5766 	 -10.3174 	 
H 	 -102.712 	 53.5659 	 -9.31875 	 
H 	 -104.114 	 52.9464 	 -10.1691 	 
H 	 -103.529 	 54.5778 	 -10.5262 	 
H 	 -107.167 	 57.6609 	 -12.3728 	 
H 	 -106.269 	 49.4264 	 -12.8913 	 
