34

S 	 -115.053 	 14.109 	 -115.556 	 
C 	 -113.618 	 15.0448 	 -116.063 	 
C 	 -113.942 	 16.1551 	 -116.792 	 
C 	 -115.386 	 16.2696 	 -116.921 	 
C 	 -116.134 	 15.3202 	 -116.233 	 
H 	 -115.959 	 17.0448 	 -117.404 	 
C 	 -112.967 	 17.1367 	 -117.408 	 
H 	 -111.923 	 16.8368 	 -117.328 	 
H 	 -113.019 	 18.0898 	 -116.793 	 
C 	 -113.317 	 17.5202 	 -118.874 	 
H 	 -113.397 	 16.6185 	 -119.479 	 
H 	 -114.296 	 17.9131 	 -118.939 	 
C 	 -112.38 	 18.7069 	 -119.294 	 
H 	 -112.402 	 19.537 	 -118.542 	 
H 	 -111.37 	 18.4179 	 -119.378 	 
H 	 -112.743 	 19.0231 	 -120.261 	 
S 	 -118.154 	 13.5999 	 -116.555 	 
C 	 -119.838 	 14.1271 	 -116.29 	 
C 	 -119.859 	 15.4427 	 -115.871 	 
C 	 -118.588 	 16.0993 	 -116.032 	 
C 	 -117.603 	 15.1905 	 -116.274 	 
H 	 -120.831 	 15.8203 	 -115.481 	 
C 	 -118.357 	 17.481 	 -115.429 	 
H 	 -117.256 	 17.7366 	 -115.49 	 
H 	 -118.583 	 17.3314 	 -114.331 	 
C 	 -119.243 	 18.6215 	 -116.087 	 
H 	 -118.805 	 19.47 	 -115.545 	 
H 	 -120.276 	 18.6238 	 -115.869 	 
C 	 -119.149 	 18.8027 	 -117.639 	 
H 	 -119.576 	 19.7309 	 -117.96 	 
H 	 -119.628 	 17.9488 	 -118.139 	 
H 	 -118.066 	 18.7695 	 -117.87 	 
H 	 -112.684 	 14.652 	 -115.713 	 
H 	 -120.71 	 13.5219 	 -116.233 	 
