34

S 	 -122.5 	 59.5704 	 -36.948 	 
C 	 -123.968 	 60.5807 	 -36.9156 	 
C 	 -123.753 	 61.8061 	 -36.3388 	 
C 	 -122.351 	 61.9319 	 -35.9841 	 
C 	 -121.581 	 60.8373 	 -36.1556 	 
H 	 -121.898 	 62.83 	 -35.6498 	 
C 	 -124.749 	 62.9216 	 -36.3903 	 
H 	 -124.976 	 63.1657 	 -35.3422 	 
H 	 -125.657 	 62.4587 	 -36.7874 	 
C 	 -124.376 	 64.1042 	 -37.3371 	 
H 	 -125.24 	 64.676 	 -37.3766 	 
H 	 -123.614 	 64.7304 	 -36.842 	 
C 	 -123.907 	 63.6794 	 -38.7069 	 
H 	 -122.841 	 63.3494 	 -38.6241 	 
H 	 -124.563 	 62.8857 	 -38.9857 	 
H 	 -123.995 	 64.5581 	 -39.4188 	 
S 	 -119.243 	 60.4899 	 -37.4958 	 
C 	 -117.779 	 61.0985 	 -36.8476 	 
C 	 -117.877 	 61.1292 	 -35.477 	 
C 	 -119.224 	 61.0344 	 -35.0035 	 
C 	 -120.109 	 60.7938 	 -36.018 	 
H 	 -116.999 	 61.2706 	 -34.8764 	 
C 	 -119.638 	 61.3065 	 -33.5687 	 
H 	 -120.527 	 60.728 	 -33.3812 	 
H 	 -119.923 	 62.3779 	 -33.3959 	 
C 	 -118.522 	 60.9166 	 -32.6216 	 
H 	 -117.563 	 61.4265 	 -32.85 	 
H 	 -118.175 	 59.8863 	 -32.7743 	 
C 	 -118.851 	 61.1932 	 -31.1198 	 
H 	 -117.993 	 60.9465 	 -30.4423 	 
H 	 -119.715 	 60.511 	 -30.8285 	 
H 	 -119.023 	 62.257 	 -30.9687 	 
H 	 -124.939 	 60.3028 	 -37.1919 	 
H 	 -116.89 	 61.2485 	 -37.3951 	 
