34

S 	 -126.952 	 58.6635 	 -58.231 	 
C 	 -126.193 	 58.8264 	 -59.8254 	 
C 	 -127.061 	 59.3221 	 -60.7647 	 
C 	 -128.385 	 59.4463 	 -60.2155 	 
C 	 -128.527 	 59.0807 	 -58.897 	 
H 	 -129.148 	 59.6715 	 -60.8455 	 
C 	 -126.713 	 59.6764 	 -62.2353 	 
H 	 -126.832 	 58.8474 	 -62.8291 	 
H 	 -125.673 	 59.7428 	 -62.3226 	 
C 	 -127.472 	 60.8921 	 -62.8555 	 
H 	 -128.518 	 60.7077 	 -62.9066 	 
H 	 -127.259 	 61.8075 	 -62.2941 	 
C 	 -127.074 	 61.043 	 -64.3538 	 
H 	 -127.51 	 60.3389 	 -65.0276 	 
H 	 -127.347 	 62.0714 	 -64.6374 	 
H 	 -125.965 	 60.9909 	 -64.4732 	 
S 	 -129.474 	 58.243 	 -56.5284 	 
C 	 -131.116 	 58.4246 	 -56.0108 	 
C 	 -131.889 	 59.0215 	 -56.9828 	 
C 	 -131.101 	 59.4247 	 -58.1871 	 
C 	 -129.755 	 58.9379 	 -58.0946 	 
H 	 -132.984 	 59.2125 	 -56.8589 	 
C 	 -131.739 	 60.1962 	 -59.382 	 
H 	 -130.924 	 60.3147 	 -60.095 	 
H 	 -132.022 	 61.1606 	 -59.081 	 
C 	 -132.769 	 59.4392 	 -60.2678 	 
H 	 -133.583 	 58.9589 	 -59.661 	 
H 	 -132.333 	 58.6523 	 -60.8212 	 
C 	 -133.436 	 60.4253 	 -61.2795 	 
H 	 -132.684 	 60.7763 	 -61.9567 	 
H 	 -133.89 	 61.2853 	 -60.7098 	 
H 	 -134.195 	 59.937 	 -61.8637 	 
H 	 -125.18 	 58.6488 	 -60.0397 	 
H 	 -131.381 	 58.2483 	 -54.956 	 
