34

S 	 -51.0878 	 -3.39067 	 -17.9141 	 
C 	 -52.272 	 -3.19491 	 -19.1551 	 
C 	 -53.4359 	 -2.66888 	 -18.6617 	 
C 	 -53.2955 	 -2.48423 	 -17.248 	 
C 	 -52.0333 	 -2.66722 	 -16.7146 	 
H 	 -54.1265 	 -2.05624 	 -16.7525 	 
C 	 -54.7415 	 -2.32505 	 -19.48 	 
H 	 -54.3442 	 -1.92317 	 -20.4294 	 
H 	 -55.2596 	 -1.58175 	 -18.9347 	 
C 	 -55.4995 	 -3.72604 	 -19.8358 	 
H 	 -54.8566 	 -4.44347 	 -20.4235 	 
H 	 -55.7877 	 -4.15966 	 -18.9069 	 
C 	 -56.7596 	 -3.55107 	 -20.6061 	 
H 	 -57.3013 	 -4.49395 	 -20.6892 	 
H 	 -57.4709 	 -2.89406 	 -20.0006 	 
H 	 -56.6494 	 -3.1859 	 -21.6573 	 
S 	 -49.8324 	 -2.29113 	 -15.1245 	 
C 	 -50.0305 	 -2.28544 	 -13.4108 	 
C 	 -51.3705 	 -2.2363 	 -13.0287 	 
C 	 -52.2228 	 -2.32812 	 -14.1382 	 
C 	 -51.5889 	 -2.50468 	 -15.3191 	 
H 	 -51.6959 	 -2.23498 	 -11.9772 	 
C 	 -53.654 	 -2.37718 	 -13.8293 	 
H 	 -53.86 	 -3.04756 	 -12.9764 	 
H 	 -54.1466 	 -2.90906 	 -14.69 	 
C 	 -54.3878 	 -1.07714 	 -13.9872 	 
H 	 -55.3786 	 -1.20282 	 -14.4266 	 
H 	 -53.8373 	 -0.521583 	 -14.835 	 
C 	 -54.5291 	 -0.197308 	 -12.702 	 
H 	 -55.3028 	 -0.597826 	 -11.9227 	 
H 	 -54.87 	 0.816698 	 -12.9869 	 
H 	 -53.5993 	 -0.182124 	 -12.0925 	 
H 	 -51.9481 	 -3.50544 	 -20.1361 	 
H 	 -49.2151 	 -1.98985 	 -12.8622 	 
