34

S 	 44.7308 	 -16.3207 	 -116.321 	 
C 	 46.0835 	 -17.2883 	 -115.848 	 
C 	 46.9943 	 -17.6157 	 -116.844 	 
C 	 46.689 	 -16.8204 	 -117.998 	 
C 	 45.5138 	 -16.0698 	 -117.894 	 
H 	 47.2426 	 -16.8257 	 -118.896 	 
C 	 48.1879 	 -18.5762 	 -116.71 	 
H 	 48.3777 	 -19.0367 	 -117.656 	 
H 	 47.8519 	 -19.3685 	 -115.965 	 
C 	 49.5481 	 -17.8969 	 -116.144 	 
H 	 49.4262 	 -17.4157 	 -115.165 	 
H 	 50.3646 	 -18.6399 	 -116.072 	 
C 	 50.0623 	 -16.7971 	 -117.128 	 
H 	 51.1704 	 -16.6102 	 -116.91 	 
H 	 50.0629 	 -17.1189 	 -118.105 	 
H 	 49.5841 	 -15.811 	 -117.09 	 
S 	 43.6741 	 -15.7171 	 -120.012 	 
C 	 43.6751 	 -14.2888 	 -120.95 	 
C 	 44.8562 	 -13.5783 	 -120.744 	 
C 	 45.5311 	 -14.0283 	 -119.57 	 
C 	 45.0155 	 -15.1808 	 -118.978 	 
H 	 45.0493 	 -12.6862 	 -121.32 	 
C 	 46.7558 	 -13.2853 	 -119.096 	 
H 	 46.9758 	 -13.6944 	 -118.114 	 
H 	 46.52 	 -12.1898 	 -119.039 	 
C 	 47.9312 	 -13.3952 	 -120.064 	 
H 	 47.7664 	 -12.8549 	 -121.022 	 
H 	 48.0644 	 -14.4676 	 -120.273 	 
C 	 49.2118 	 -12.8232 	 -119.414 	 
H 	 49.0746 	 -11.7947 	 -119.105 	 
H 	 50.0898 	 -12.8398 	 -119.922 	 
H 	 49.3991 	 -13.4224 	 -118.59 	 
H 	 46.1381 	 -17.648 	 -114.838 	 
H 	 43.0165 	 -14.0475 	 -121.795 	 
