34

S 	 -105.715 	 59.6722 	 -6.11937 	 
C 	 -104.837 	 61.1382 	 -6.38577 	 
C 	 -105.565 	 62.2563 	 -6.2042 	 
C 	 -106.947 	 61.8629 	 -6.13309 	 
C 	 -107.225 	 60.474 	 -6.34665 	 
H 	 -107.742 	 62.621 	 -5.99329 	 
C 	 -105.139 	 63.6989 	 -6.12406 	 
H 	 -104.078 	 63.6763 	 -6.03605 	 
H 	 -105.515 	 64.1285 	 -5.18708 	 
C 	 -105.603 	 64.6581 	 -7.24673 	 
H 	 -105.484 	 64.3196 	 -8.28332 	 
H 	 -106.707 	 64.7698 	 -7.07033 	 
C 	 -105.049 	 66.1032 	 -7.19323 	 
H 	 -105.617 	 66.7733 	 -7.71879 	 
H 	 -105.042 	 66.3672 	 -6.11965 	 
H 	 -104.008 	 66.1248 	 -7.58205 	 
S 	 -108.362 	 58.1607 	 -7.5016 	 
C 	 -110.111 	 57.9531 	 -7.30195 	 
C 	 -110.748 	 59.087 	 -6.75381 	 
C 	 -109.798 	 60.0542 	 -6.35034 	 
C 	 -108.488 	 59.708 	 -6.59986 	 
H 	 -111.806 	 59.0233 	 -6.71657 	 
C 	 -110.262 	 61.37 	 -5.75237 	 
H 	 -109.523 	 61.6261 	 -4.98144 	 
H 	 -111.236 	 61.0039 	 -5.34392 	 
C 	 -110.51 	 62.5198 	 -6.72902 	 
H 	 -111.225 	 62.242 	 -7.46933 	 
H 	 -109.668 	 62.9682 	 -7.24762 	 
C 	 -111.144 	 63.7085 	 -5.91054 	 
H 	 -110.453 	 64.1583 	 -5.25381 	 
H 	 -112.05 	 63.3991 	 -5.26498 	 
H 	 -111.459 	 64.4168 	 -6.63082 	 
H 	 -103.747 	 61.13 	 -6.50367 	 
H 	 -110.615 	 57.1359 	 -7.67475 	 
