34

S 	 -74.2173 	 0.281846 	 -63.3266 	 
C 	 -74.4608 	 1.98578 	 -63.4376 	 
C 	 -75.2926 	 2.42476 	 -62.4535 	 
C 	 -75.734 	 1.38265 	 -61.5638 	 
C 	 -75.1184 	 0.179154 	 -61.8054 	 
H 	 -76.4056 	 1.57605 	 -60.7477 	 
C 	 -75.8641 	 3.80901 	 -62.3566 	 
H 	 -75.0322 	 4.48641 	 -62.2115 	 
H 	 -76.5503 	 3.78147 	 -61.4656 	 
C 	 -76.7666 	 4.12698 	 -63.5436 	 
H 	 -76.2975 	 3.94695 	 -64.483 	 
H 	 -77.5721 	 3.41874 	 -63.5063 	 
C 	 -77.3368 	 5.52347 	 -63.4922 	 
H 	 -77.8484 	 5.64653 	 -62.5325 	 
H 	 -76.5407 	 6.23478 	 -63.4522 	 
H 	 -78.1018 	 5.69946 	 -64.239 	 
S 	 -73.9185 	 -1.78338 	 -60.2837 	 
C 	 -74.9726 	 -3.069 	 -59.6304 	 
C 	 -76.306 	 -2.7696 	 -59.9083 	 
C 	 -76.509 	 -1.75537 	 -60.8568 	 
C 	 -75.3347 	 -1.04994 	 -61.0715 	 
H 	 -76.9751 	 -3.43728 	 -59.4753 	 
C 	 -77.8177 	 -1.52389 	 -61.4483 	 
H 	 -78.0261 	 -2.37042 	 -62.0597 	 
H 	 -77.8104 	 -0.626317 	 -62.0743 	 
C 	 -78.9988 	 -1.48882 	 -60.4735 	 
H 	 -78.6566 	 -1.06105 	 -59.476 	 
H 	 -79.3239 	 -2.51418 	 -60.1316 	 
C 	 -80.1845 	 -0.611742 	 -60.8965 	 
H 	 -80.7004 	 -0.974919 	 -61.8057 	 
H 	 -79.8686 	 0.399764 	 -61.2401 	 
H 	 -80.8076 	 -0.388384 	 -60.0496 	 
H 	 -73.9609 	 2.64661 	 -64.1288 	 
H 	 -74.6556 	 -3.86512 	 -58.9562 	 
