34

S 	 -95.3555 	 51.2324 	 -100.424 	 
C 	 -94.4298 	 52.194 	 -99.2542 	 
C 	 -95.1829 	 52.4165 	 -98.1124 	 
C 	 -96.5093 	 51.9498 	 -98.2488 	 
C 	 -96.7851 	 51.1843 	 -99.402 	 
H 	 -97.3062 	 52.0555 	 -97.4532 	 
C 	 -94.7887 	 53.2891 	 -96.9028 	 
H 	 -95.6052 	 53.9218 	 -96.5822 	 
H 	 -93.9695 	 53.9301 	 -97.3371 	 
C 	 -94.2183 	 52.3924 	 -95.7178 	 
H 	 -95.0371 	 51.859 	 -95.2666 	 
H 	 -93.5133 	 51.7089 	 -96.2202 	 
C 	 -93.3005 	 53.2219 	 -94.7205 	 
H 	 -93.9415 	 54.0762 	 -94.4847 	 
H 	 -92.9533 	 52.5444 	 -93.875 	 
H 	 -92.4015 	 53.5352 	 -95.1922 	 
S 	 -97.7522 	 48.7613 	 -100.307 	 
C 	 -99.5005 	 48.6539 	 -100.36 	 
C 	 -100.241 	 49.7753 	 -100.117 	 
C 	 -99.3258 	 50.7966 	 -99.6502 	 
C 	 -97.9496 	 50.4785 	 -99.7979 	 
H 	 -101.319 	 49.7963 	 -100.109 	 
C 	 -99.9319 	 52.0592 	 -99.027 	 
H 	 -99.2068 	 52.333 	 -98.2206 	 
H 	 -100.872 	 51.8683 	 -98.5727 	 
C 	 -100.168 	 53.2272 	 -100.024 	 
H 	 -100.782 	 52.8922 	 -100.859 	 
H 	 -99.1767 	 53.4159 	 -100.421 	 
C 	 -100.87 	 54.4964 	 -99.3849 	 
H 	 -101.042 	 55.1863 	 -100.207 	 
H 	 -100.282 	 55.1685 	 -98.773 	 
H 	 -101.791 	 54.1646 	 -99.0577 	 
H 	 -93.4075 	 52.5648 	 -99.2858 	 
H 	 -100.073 	 47.7051 	 -100.575 	 
