34

S 	 -62.4462 	 3.56386 	 -16.2859 	 
C 	 -63.7033 	 3.22826 	 -15.217 	 
C 	 -63.4463 	 2.11895 	 -14.3719 	 
C 	 -62.138 	 1.59171 	 -14.7049 	 
C 	 -61.6034 	 2.10635 	 -15.846 	 
H 	 -61.6028 	 0.783824 	 -14.1634 	 
C 	 -64.3528 	 1.55108 	 -13.2515 	 
H 	 -63.9072 	 0.52566 	 -13.1603 	 
H 	 -65.3943 	 1.49685 	 -13.5416 	 
C 	 -64.374 	 2.32413 	 -11.8979 	 
H 	 -64.9738 	 3.23561 	 -11.9631 	 
H 	 -64.8746 	 1.63788 	 -11.1213 	 
C 	 -62.9254 	 2.75654 	 -11.4721 	 
H 	 -62.4794 	 3.5089 	 -12.1478 	 
H 	 -62.7961 	 3.19418 	 -10.5035 	 
H 	 -62.1498 	 1.97439 	 -11.4986 	 
S 	 -59.4759 	 3.1785 	 -17.3607 	 
C 	 -58.2057 	 2.10712 	 -17.9717 	 
C 	 -58.2391 	 0.865215 	 -17.3006 	 
C 	 -59.5015 	 0.689175 	 -16.5254 	 
C 	 -60.29 	 1.84361 	 -16.4953 	 
H 	 -57.464 	 0.135478 	 -17.5627 	 
C 	 -59.969 	 -0.677495 	 -16.0414 	 
H 	 -59.5837 	 -1.33074 	 -16.7586 	 
H 	 -61.0913 	 -0.739758 	 -16.106 	 
C 	 -59.4358 	 -1.27497 	 -14.7061 	 
H 	 -59.8626 	 -2.30861 	 -14.6545 	 
H 	 -59.9609 	 -0.772764 	 -13.9452 	 
C 	 -57.9914 	 -1.16855 	 -14.2954 	 
H 	 -57.6977 	 -0.143114 	 -14.0264 	 
H 	 -57.4378 	 -1.54912 	 -15.1392 	 
H 	 -57.836 	 -1.61928 	 -13.3814 	 
H 	 -64.5427 	 3.88037 	 -15.0469 	 
H 	 -57.549 	 2.31451 	 -18.7795 	 
