34

S 	 25.6453 	 -10.8694 	 -113.007 	 
C 	 26.0076 	 -10.7681 	 -111.308 	 
C 	 24.9173 	 -10.2331 	 -110.604 	 
C 	 23.9072 	 -9.85041 	 -111.498 	 
C 	 24.1364 	 -10.0858 	 -112.841 	 
H 	 22.9399 	 -9.39746 	 -111.256 	 
C 	 24.804 	 -10.0867 	 -109.088 	 
H 	 25.2195 	 -10.921 	 -108.555 	 
H 	 23.7622 	 -10.0853 	 -108.713 	 
C 	 25.5121 	 -8.8504 	 -108.533 	 
H 	 26.5821 	 -8.93763 	 -108.796 	 
H 	 25.0909 	 -8.0406 	 -109.159 	 
C 	 25.27 	 -8.68745 	 -107.011 	 
H 	 25.8053 	 -9.42528 	 -106.435 	 
H 	 25.854 	 -7.77985 	 -106.82 	 
H 	 24.2467 	 -8.60492 	 -106.608 	 
S 	 22.6092 	 -11.084 	 -114.94 	 
C 	 21.9093 	 -9.94475 	 -116.013 	 
C 	 21.9604 	 -8.69008 	 -115.485 	 
C 	 22.6113 	 -8.54493 	 -114.256 	 
C 	 23.2474 	 -9.71496 	 -113.961 	 
H 	 21.6195 	 -7.80619 	 -115.963 	 
C 	 22.6039 	 -7.20573 	 -113.504 	 
H 	 22.9102 	 -6.49124 	 -114.302 	 
H 	 23.4426 	 -7.31036 	 -112.798 	 
C 	 21.3158 	 -6.76428 	 -112.787 	 
H 	 21.0598 	 -7.53413 	 -112.085 	 
H 	 20.449 	 -6.90489 	 -113.449 	 
C 	 21.4147 	 -5.28431 	 -112.15 	 
H 	 20.6051 	 -5.13772 	 -111.404 	 
H 	 21.3941 	 -4.49214 	 -112.883 	 
H 	 22.4167 	 -5.10588 	 -111.622 	 
H 	 26.9699 	 -10.9994 	 -110.891 	 
H 	 21.3864 	 -10.1919 	 -116.937 	 
