34

S 	 -90.5182 	 -5.0648 	 -118.875 	 
C 	 -90.0906 	 -4.32549 	 -117.318 	 
C 	 -90.9588 	 -3.28879 	 -116.951 	 
C 	 -91.9262 	 -3.02068 	 -117.972 	 
C 	 -91.8665 	 -3.91214 	 -118.96 	 
H 	 -92.7026 	 -2.25831 	 -117.849 	 
C 	 -90.8885 	 -2.57476 	 -115.604 	 
H 	 -90.8756 	 -3.39639 	 -114.873 	 
H 	 -91.7437 	 -2.02895 	 -115.54 	 
C 	 -89.6704 	 -1.6316 	 -115.393 	 
H 	 -88.7426 	 -2.24556 	 -115.6 	 
H 	 -89.6949 	 -0.767967 	 -116.076 	 
C 	 -89.6128 	 -1.15293 	 -113.859 	 
H 	 -89.1866 	 -1.98021 	 -113.164 	 
H 	 -88.9994 	 -0.238041 	 -113.743 	 
H 	 -90.5486 	 -0.722686 	 -113.415 	 
S 	 -91.9304 	 -3.65686 	 -121.735 	 
C 	 -93.4395 	 -3.46348 	 -122.504 	 
C 	 -94.4916 	 -3.68477 	 -121.632 	 
C 	 -94.0679 	 -4.08076 	 -120.375 	 
C 	 -92.7244 	 -3.95405 	 -120.211 	 
H 	 -95.4786 	 -3.52996 	 -122.039 	 
C 	 -95.0917 	 -4.21121 	 -119.243 	 
H 	 -94.5627 	 -4.83319 	 -118.523 	 
H 	 -95.9775 	 -4.80977 	 -119.599 	 
C 	 -95.6136 	 -2.86407 	 -118.508 	 
H 	 -95.8004 	 -2.12953 	 -119.313 	 
H 	 -94.8124 	 -2.65857 	 -117.862 	 
C 	 -96.7751 	 -3.00007 	 -117.508 	 
H 	 -96.9457 	 -2.05101 	 -117.014 	 
H 	 -96.6084 	 -3.71222 	 -116.682 	 
H 	 -97.6987 	 -3.2298 	 -118.028 	 
H 	 -89.2373 	 -4.64084 	 -116.747 	 
H 	 -93.5146 	 -3.06602 	 -123.504 	 
