34

S 	 46.3912 	 -35.6419 	 -122.971 	 
C 	 45.5265 	 -35.0461 	 -124.358 	 
C 	 44.6576 	 -33.9686 	 -124.064 	 
C 	 44.7014 	 -33.6833 	 -122.678 	 
C 	 45.5655 	 -34.4809 	 -121.933 	 
H 	 44.1711 	 -32.8503 	 -122.136 	 
C 	 43.6236 	 -33.2947 	 -125.019 	 
H 	 42.6199 	 -33.0691 	 -124.438 	 
H 	 43.4013 	 -33.9347 	 -125.797 	 
C 	 44.1531 	 -32.0103 	 -125.565 	 
H 	 45.1773 	 -31.9986 	 -125.866 	 
H 	 43.6398 	 -31.7547 	 -126.508 	 
C 	 43.9335 	 -30.7766 	 -124.654 	 
H 	 44.4469 	 -30.7443 	 -123.674 	 
H 	 44.1969 	 -29.8608 	 -125.108 	 
H 	 42.7922 	 -30.6916 	 -124.466 	 
S 	 47.479 	 -34.1186 	 -119.999 	 
C 	 46.9551 	 -33.9275 	 -118.325 	 
C 	 45.6174 	 -34.2048 	 -118.174 	 
C 	 44.9516 	 -34.4399 	 -119.399 	 
C 	 45.8034 	 -34.2365 	 -120.515 	 
H 	 45.1217 	 -34.2376 	 -117.246 	 
C 	 43.4212 	 -34.6845 	 -119.423 	 
H 	 43.1713 	 -35.0911 	 -118.506 	 
H 	 43.2677 	 -35.4657 	 -120.179 	 
C 	 42.514 	 -33.4732 	 -119.699 	 
H 	 42.5515 	 -33.1889 	 -120.796 	 
H 	 42.7063 	 -32.5529 	 -119.101 	 
C 	 41.0969 	 -33.7257 	 -119.275 	 
H 	 40.4345 	 -32.9858 	 -119.677 	 
H 	 40.8904 	 -33.69 	 -118.21 	 
H 	 40.7968 	 -34.7704 	 -119.508 	 
H 	 45.6454 	 -35.3814 	 -125.4 	 
H 	 47.487 	 -33.5465 	 -117.468 	 
