34

S 	 -94.3676 	 46.6832 	 -91.6074 	 
C 	 -93.7161 	 45.0656 	 -91.4387 	 
C 	 -94.5407 	 44.289 	 -90.634 	 
C 	 -95.8088 	 44.9266 	 -90.4046 	 
C 	 -95.9347 	 46.149 	 -90.9763 	 
H 	 -96.6544 	 44.5633 	 -89.83 	 
C 	 -94.2351 	 42.866 	 -90.173 	 
H 	 -94.2942 	 42.7356 	 -89.0966 	 
H 	 -93.1666 	 42.7458 	 -90.4049 	 
C 	 -94.89 	 41.7862 	 -91.1005 	 
H 	 -94.7801 	 42.247 	 -92.095 	 
H 	 -94.26 	 40.8871 	 -91.2131 	 
C 	 -96.3807 	 41.435 	 -90.8357 	 
H 	 -96.8096 	 41.005 	 -91.7236 	 
H 	 -96.5198 	 40.6506 	 -90.1032 	 
H 	 -97.0426 	 42.2551 	 -90.4848 	 
S 	 -96.8027 	 48.7477 	 -90.5286 	 
C 	 -98.5037 	 49.0803 	 -90.7023 	 
C 	 -99.2198 	 47.9689 	 -91.1349 	 
C 	 -98.4297 	 46.7742 	 -91.1249 	 
C 	 -97.1036 	 47.0799 	 -90.9822 	 
H 	 -100.282 	 48.1591 	 -91.3859 	 
C 	 -99.0632 	 45.4114 	 -91.355 	 
H 	 -98.3527 	 44.7523 	 -91.7599 	 
H 	 -99.9176 	 45.5272 	 -92.0515 	 
C 	 -99.6331 	 44.8994 	 -90.0232 	 
H 	 -100.234 	 45.7401 	 -89.6515 	 
H 	 -98.7957 	 44.7402 	 -89.3323 	 
C 	 -100.314 	 43.5538 	 -90.2012 	 
H 	 -101.183 	 43.6845 	 -90.8561 	 
H 	 -100.655 	 43.151 	 -89.285 	 
H 	 -99.6049 	 42.8169 	 -90.6539 	 
H 	 -92.8552 	 44.6015 	 -91.8471 	 
H 	 -98.9085 	 50.0669 	 -90.4388 	 
