34

S 	 -54.1784 	 15.9459 	 -85.0798 	 
C 	 -53.9506 	 14.9956 	 -86.5845 	 
C 	 -54.6548 	 15.4465 	 -87.6551 	 
C 	 -55.404 	 16.6002 	 -87.2942 	 
C 	 -55.2952 	 16.8935 	 -85.941 	 
H 	 -56.0471 	 17.285 	 -87.916 	 
C 	 -54.8611 	 14.7306 	 -88.9767 	 
H 	 -55.9065 	 14.453 	 -89.0874 	 
H 	 -54.3244 	 13.728 	 -88.9165 	 
C 	 -54.3783 	 15.4295 	 -90.2735 	 
H 	 -54.7133 	 16.4588 	 -90.458 	 
H 	 -53.2782 	 15.5185 	 -90.0971 	 
C 	 -54.7561 	 14.5289 	 -91.525 	 
H 	 -55.7865 	 14.3798 	 -91.5315 	 
H 	 -54.4967 	 14.9785 	 -92.4795 	 
H 	 -54.3289 	 13.525 	 -91.4873 	 
S 	 -57.3709 	 17.5973 	 -84.3443 	 
C 	 -57.7791 	 19.3402 	 -84.2008 	 
C 	 -56.9613 	 20.1495 	 -84.8964 	 
C 	 -55.9782 	 19.3886 	 -85.6155 	 
C 	 -56.0482 	 18.0061 	 -85.3913 	 
H 	 -57.169 	 21.2283 	 -85.0139 	 
C 	 -54.9783 	 20.1323 	 -86.4373 	 
H 	 -54.2752 	 19.3592 	 -86.6404 	 
H 	 -54.3731 	 20.8509 	 -85.8677 	 
C 	 -55.4249 	 20.8027 	 -87.737 	 
H 	 -56.0974 	 21.6126 	 -87.5201 	 
H 	 -55.8913 	 20.0863 	 -88.4083 	 
C 	 -54.2758 	 21.3892 	 -88.4766 	 
H 	 -54.5239 	 21.6007 	 -89.5527 	 
H 	 -53.6291 	 20.5498 	 -88.7316 	 
H 	 -53.85 	 22.172 	 -87.8936 	 
H 	 -53.614 	 14.0035 	 -86.5255 	 
H 	 -58.6725 	 19.766 	 -83.7073 	 
