34

S 	 -51.621 	 20.2674 	 -87.1463 	 
C 	 -52.5217 	 20.672 	 -88.5926 	 
C 	 -53.8582 	 21.0198 	 -88.2906 	 
C 	 -54.143 	 20.984 	 -86.8965 	 
C 	 -52.9894 	 20.7195 	 -86.1403 	 
H 	 -55.034 	 21.2033 	 -86.3568 	 
C 	 -54.8937 	 21.4006 	 -89.2672 	 
H 	 -55.8786 	 21.2083 	 -88.9514 	 
H 	 -54.7423 	 20.6849 	 -90.0973 	 
C 	 -54.8658 	 22.8127 	 -89.8311 	 
H 	 -54.9947 	 23.5883 	 -89.0328 	 
H 	 -53.9389 	 23.0249 	 -90.333 	 
C 	 -56.0008 	 23.1568 	 -90.7947 	 
H 	 -56.9584 	 23.0388 	 -90.2121 	 
H 	 -55.9917 	 24.1598 	 -91.3038 	 
H 	 -56.1708 	 22.4374 	 -91.5888 	 
S 	 -52.8767 	 18.9402 	 -84.159 	 
C 	 -52.6593 	 19.4746 	 -82.539 	 
C 	 -52.7477 	 20.8357 	 -82.3505 	 
C 	 -52.9418 	 21.4585 	 -83.6461 	 
C 	 -52.9612 	 20.5911 	 -84.6935 	 
H 	 -52.6337 	 21.2607 	 -81.3541 	 
C 	 -52.9399 	 22.9452 	 -83.8811 	 
H 	 -53.4912 	 23.4738 	 -83.0502 	 
H 	 -53.6886 	 23.1257 	 -84.7796 	 
C 	 -51.5581 	 23.5321 	 -84.261 	 
H 	 -51.3481 	 23.1904 	 -85.2891 	 
H 	 -50.7661 	 23.2505 	 -83.5584 	 
C 	 -51.6791 	 25.0366 	 -84.2051 	 
H 	 -52.1444 	 25.3635 	 -83.2603 	 
H 	 -52.1703 	 25.3537 	 -85.1429 	 
H 	 -50.7588 	 25.5358 	 -84.4402 	 
H 	 -52.2414 	 20.6005 	 -89.6262 	 
H 	 -52.3559 	 18.7344 	 -81.8068 	 
