34

S 	 -147.389 	 29.3295 	 -16.4423 	 
C 	 -147.307 	 30.2393 	 -17.906 	 
C 	 -147.118 	 31.5939 	 -17.5838 	 
C 	 -147.077 	 31.9231 	 -16.2188 	 
C 	 -147.332 	 30.8142 	 -15.4246 	 
H 	 -146.826 	 32.9129 	 -15.7951 	 
C 	 -146.59 	 32.6013 	 -18.5693 	 
H 	 -147.165 	 33.4918 	 -18.4692 	 
H 	 -146.761 	 32.2399 	 -19.5808 	 
C 	 -145.028 	 32.7501 	 -18.5268 	 
H 	 -144.801 	 33.0733 	 -17.5692 	 
H 	 -144.702 	 31.7601 	 -18.5578 	 
C 	 -144.388 	 33.5476 	 -19.6467 	 
H 	 -143.388 	 33.8506 	 -19.4225 	 
H 	 -144.31 	 33.0342 	 -20.5712 	 
H 	 -145.015 	 34.3935 	 -19.8742 	 
S 	 -146.156 	 29.7733 	 -13.1786 	 
C 	 -146.791 	 30.1672 	 -11.5967 	 
C 	 -147.861 	 30.9992 	 -11.7353 	 
C 	 -148.137 	 31.4593 	 -13.0655 	 
C 	 -147.342 	 30.7536 	 -13.9607 	 
H 	 -148.459 	 31.1654 	 -10.8437 	 
C 	 -149.227 	 32.5271 	 -13.3146 	 
H 	 -150.007 	 32.1195 	 -12.6509 	 
H 	 -149.728 	 32.3937 	 -14.2699 	 
C 	 -148.888 	 34.0305 	 -13.0294 	 
H 	 -149.621 	 34.7409 	 -13.394 	 
H 	 -148.029 	 34.2932 	 -13.6391 	 
C 	 -148.54 	 34.389 	 -11.5645 	 
H 	 -148.399 	 35.4809 	 -11.4496 	 
H 	 -147.693 	 33.8576 	 -11.1984 	 
H 	 -149.4 	 34.0237 	 -10.9428 	 
H 	 -146.999 	 29.8494 	 -18.8512 	 
H 	 -146.393 	 29.5761 	 -10.7432 	 
