34

S 	 28.6267 	 -30.2023 	 -131.506 	 
C 	 28.9571 	 -28.9021 	 -132.54 	 
C 	 28.6401 	 -27.711 	 -131.92 	 
C 	 28.565 	 -27.8953 	 -130.483 	 
C 	 28.6855 	 -29.2352 	 -130.003 	 
H 	 28.4382 	 -27.1613 	 -129.814 	 
C 	 28.6048 	 -26.3154 	 -132.595 	 
H 	 27.9969 	 -26.3001 	 -133.492 	 
H 	 29.5636 	 -26.0051 	 -132.966 	 
C 	 27.8213 	 -25.2219 	 -131.827 	 
H 	 26.8278 	 -25.7211 	 -131.848 	 
H 	 28.1254 	 -25.1285 	 -130.732 	 
C 	 27.9185 	 -23.8497 	 -132.43 	 
H 	 27.7036 	 -23.974 	 -133.487 	 
H 	 27.1528 	 -23.1424 	 -132.104 	 
H 	 28.9594 	 -23.4715 	 -132.242 	 
S 	 27.9202 	 -31.4095 	 -128.441 	 
C 	 28.2853 	 -31.4339 	 -126.734 	 
C 	 29.0888 	 -30.3416 	 -126.445 	 
C 	 29.3936 	 -29.419 	 -127.503 	 
C 	 28.6542 	 -29.8006 	 -128.648 	 
H 	 29.3212 	 -30.1598 	 -125.409 	 
C 	 30.2851 	 -28.2361 	 -127.314 	 
H 	 30.584 	 -27.8209 	 -128.268 	 
H 	 31.1765 	 -28.6377 	 -126.842 	 
C 	 29.6105 	 -27.1944 	 -126.447 	 
H 	 29.2463 	 -27.6573 	 -125.567 	 
H 	 28.6734 	 -26.8204 	 -126.89 	 
C 	 30.6345 	 -26.1317 	 -126.135 	 
H 	 30.4244 	 -25.5083 	 -125.282 	 
H 	 30.8471 	 -25.5696 	 -127.014 	 
H 	 31.6634 	 -26.4653 	 -125.859 	 
H 	 29.2127 	 -29.0579 	 -133.583 	 
H 	 27.7401 	 -31.9719 	 -126.043 	 
