34

S 	 -108.278 	 61.3223 	 -11.044 	 
C 	 -109.803 	 62.2128 	 -10.8722 	 
C 	 -110.399 	 62.3313 	 -12.1017 	 
C 	 -109.676 	 61.6157 	 -13.1366 	 
C 	 -108.545 	 60.9709 	 -12.702 	 
H 	 -109.935 	 61.675 	 -14.1818 	 
C 	 -111.614 	 63.1321 	 -12.4165 	 
H 	 -111.531 	 63.5848 	 -13.3879 	 
H 	 -111.783 	 63.9813 	 -11.7122 	 
C 	 -112.882 	 62.3293 	 -12.2028 	 
H 	 -113.644 	 62.8255 	 -12.775 	 
H 	 -112.798 	 61.3394 	 -12.6177 	 
C 	 -113.265 	 62.1313 	 -10.7137 	 
H 	 -114.071 	 61.3937 	 -10.7182 	 
H 	 -112.572 	 61.5496 	 -10.132 	 
H 	 -113.586 	 63.0942 	 -10.1694 	 
S 	 -105.95 	 60.1781 	 -12.8113 	 
C 	 -105.366 	 59.1294 	 -14.1334 	 
C 	 -106.325 	 59.0385 	 -15.1198 	 
C 	 -107.491 	 59.7679 	 -14.7926 	 
C 	 -107.508 	 60.3798 	 -13.5132 	 
H 	 -106.261 	 58.6287 	 -16.1163 	 
C 	 -108.682 	 59.5618 	 -15.7175 	 
H 	 -109.645 	 59.9736 	 -15.3013 	 
H 	 -108.846 	 58.4731 	 -15.7461 	 
C 	 -108.408 	 60.2209 	 -17.041 	 
H 	 -109.225 	 60.0111 	 -17.6405 	 
H 	 -107.52 	 59.7318 	 -17.4189 	 
C 	 -107.938 	 61.6723 	 -17.0794 	 
H 	 -107.143 	 61.9281 	 -16.3237 	 
H 	 -108.896 	 62.1841 	 -16.8651 	 
H 	 -107.653 	 61.8455 	 -18.1377 	 
H 	 -110.306 	 62.4714 	 -9.91787 	 
H 	 -104.446 	 58.6062 	 -14.2747 	 
