34

S 	 -16.8122 	 -29.3858 	 -100.827 	 
C 	 -17.4073 	 -27.9768 	 -101.597 	 
C 	 -18.5286 	 -28.2957 	 -102.388 	 
C 	 -18.8451 	 -29.6991 	 -102.298 	 
C 	 -18.0178 	 -30.3878 	 -101.442 	 
H 	 -19.6675 	 -30.2748 	 -102.761 	 
C 	 -19.3897 	 -27.2762 	 -103.084 	 
H 	 -19.2739 	 -27.293 	 -104.195 	 
H 	 -19.0967 	 -26.3097 	 -102.75 	 
C 	 -20.9772 	 -27.4019 	 -102.986 	 
H 	 -21.4214 	 -26.7319 	 -103.69 	 
H 	 -21.3098 	 -28.3339 	 -103.362 	 
C 	 -21.4278 	 -27.0052 	 -101.565 	 
H 	 -21.1236 	 -27.7859 	 -100.86 	 
H 	 -20.898 	 -26.0755 	 -101.175 	 
H 	 -22.5024 	 -26.9381 	 -101.443 	 
S 	 -16.8248 	 -32.8331 	 -102.204 	 
C 	 -17.6809 	 -34.2848 	 -101.968 	 
C 	 -18.7422 	 -34.138 	 -101.105 	 
C 	 -19.0216 	 -32.7677 	 -100.832 	 
C 	 -18.0839 	 -31.9007 	 -101.41 	 
H 	 -19.3164 	 -34.9901 	 -100.747 	 
C 	 -20.1485 	 -32.213 	 -100.001 	 
H 	 -20.9494 	 -32.1004 	 -100.747 	 
H 	 -19.8875 	 -31.1949 	 -99.6181 	 
C 	 -20.5681 	 -33.0681 	 -98.7793 	 
H 	 -20.8579 	 -33.9702 	 -99.3374 	 
H 	 -21.4935 	 -32.5947 	 -98.5076 	 
C 	 -19.5939 	 -33.4358 	 -97.6832 	 
H 	 -18.6413 	 -33.8604 	 -98.044 	 
H 	 -20.0469 	 -34.1647 	 -97.0037 	 
H 	 -19.2593 	 -32.5545 	 -97.1548 	 
H 	 -17.0306 	 -26.9705 	 -101.519 	 
H 	 -17.3204 	 -35.2232 	 -102.147 	 
