34

S 	 -112.742 	 56.8289 	 -80.2716 	 
C 	 -113.86 	 58.1304 	 -80.7888 	 
C 	 -113.924 	 59.1437 	 -79.7985 	 
C 	 -113.175 	 58.7957 	 -78.6205 	 
C 	 -112.396 	 57.6239 	 -78.7448 	 
H 	 -113.205 	 59.3111 	 -77.7052 	 
C 	 -114.828 	 60.3442 	 -79.8308 	 
H 	 -115.006 	 60.5761 	 -80.8292 	 
H 	 -114.355 	 61.3208 	 -79.4097 	 
C 	 -116.246 	 60.0976 	 -79.2 	 
H 	 -116.76 	 61.0202 	 -79.3346 	 
H 	 -116.792 	 59.3667 	 -79.8434 	 
C 	 -116.263 	 59.6629 	 -77.7457 	 
H 	 -115.496 	 58.9406 	 -77.6813 	 
H 	 -115.987 	 60.2844 	 -76.913 	 
H 	 -117.236 	 59.1831 	 -77.5602 	 
S 	 -110.978 	 55.3645 	 -77.9044 	 
C 	 -109.907 	 55.4516 	 -76.5803 	 
C 	 -109.741 	 56.8147 	 -76.1726 	 
C 	 -110.553 	 57.7073 	 -76.9092 	 
C 	 -111.376 	 57.0624 	 -77.843 	 
H 	 -108.983 	 57.1129 	 -75.498 	 
C 	 -110.419 	 59.1652 	 -76.5552 	 
H 	 -109.77 	 59.2346 	 -75.6793 	 
H 	 -111.294 	 59.6597 	 -76.2319 	 
C 	 -109.843 	 59.9059 	 -77.7291 	 
H 	 -110.558 	 59.8554 	 -78.5817 	 
H 	 -108.926 	 59.4645 	 -78.0479 	 
C 	 -109.459 	 61.2735 	 -77.2939 	 
H 	 -110.296 	 61.8018 	 -76.83 	 
H 	 -109.075 	 61.8549 	 -78.1155 	 
H 	 -108.736 	 61.1766 	 -76.4658 	 
H 	 -114.555 	 58.2645 	 -81.6635 	 
H 	 -109.48 	 54.6212 	 -76.0846 	 
