34

S 	 -16.1428 	 -27.75 	 -97.3925 	 
C 	 -14.9051 	 -28.0634 	 -98.5773 	 
C 	 -15.1487 	 -29.3918 	 -99.0291 	 
C 	 -16.3526 	 -29.9957 	 -98.6199 	 
C 	 -17.1103 	 -29.1341 	 -97.9189 	 
H 	 -16.693 	 -31.0209 	 -98.8423 	 
C 	 -14.1933 	 -30.1208 	 -100.077 	 
H 	 -13.8943 	 -31.0429 	 -99.708 	 
H 	 -13.3224 	 -29.4668 	 -100.084 	 
C 	 -14.7634 	 -30.3135 	 -101.49 	 
H 	 -14.1639 	 -30.9581 	 -102.048 	 
H 	 -15.767 	 -30.803 	 -101.371 	 
C 	 -14.9078 	 -28.9278 	 -102.233 	 
H 	 -13.9862 	 -28.4248 	 -102.329 	 
H 	 -15.2559 	 -29.0099 	 -103.224 	 
H 	 -15.6337 	 -28.2603 	 -101.684 	 
S 	 -18.4333 	 -29.4637 	 -95.5797 	 
C 	 -19.9476 	 -30.1076 	 -95.3755 	 
C 	 -20.5431 	 -30.1304 	 -96.6059 	 
C 	 -19.6622 	 -29.7856 	 -97.6835 	 
C 	 -18.3741 	 -29.4726 	 -97.256 	 
H 	 -21.5567 	 -30.3127 	 -96.7833 	 
C 	 -20.0605 	 -29.79 	 -99.1622 	 
H 	 -20.6965 	 -30.6324 	 -99.3362 	 
H 	 -19.172 	 -30.1301 	 -99.6876 	 
C 	 -20.6544 	 -28.5553 	 -99.8041 	 
H 	 -21.5546 	 -28.3993 	 -99.2 	 
H 	 -20.9118 	 -28.7151 	 -100.879 	 
C 	 -19.773 	 -27.2807 	 -99.6917 	 
H 	 -19.4234 	 -27.1864 	 -98.6188 	 
H 	 -20.2578 	 -26.3374 	 -99.9372 	 
H 	 -18.8497 	 -27.4479 	 -100.266 	 
H 	 -13.9838 	 -27.4773 	 -98.7513 	 
H 	 -20.5598 	 -30.3328 	 -94.4887 	 
