34

S 	 -42.4351 	 -2.3349 	 -9.211 	 
C 	 -43.3142 	 -1.64688 	 -7.81155 	 
C 	 -44.6677 	 -1.5466 	 -8.04093 	 
C 	 -45.0459 	 -2.23115 	 -9.20527 	 
C 	 -43.9669 	 -2.614 	 -10.0193 	 
H 	 -46.0628 	 -2.39292 	 -9.46781 	 
C 	 -45.7073 	 -1.05239 	 -7.0168 	 
H 	 -45.2048 	 -0.883448 	 -6.10285 	 
H 	 -46.4023 	 -1.81953 	 -6.72627 	 
C 	 -46.5999 	 0.0657114 	 -7.4425 	 
H 	 -46.0148 	 1.03317 	 -7.35786 	 
H 	 -46.9822 	 -0.0632839 	 -8.43437 	 
C 	 -47.7447 	 0.300952 	 -6.46078 	 
H 	 -47.3392 	 0.417848 	 -5.44272 	 
H 	 -48.1905 	 1.28239 	 -6.70674 	 
H 	 -48.4357 	 -0.528777 	 -6.45117 	 
S 	 -44.5696 	 -2.74748 	 -12.7557 	 
C 	 -44.5985 	 -4.34346 	 -13.4783 	 
C 	 -44.3325 	 -5.3269 	 -12.6018 	 
C 	 -44.0581 	 -4.86127 	 -11.3133 	 
C 	 -44.0211 	 -3.46478 	 -11.193 	 
H 	 -44.3585 	 -6.37952 	 -13.0019 	 
C 	 -43.9323 	 -5.80613 	 -10.1634 	 
H 	 -44.8363 	 -6.52105 	 -10.0905 	 
H 	 -44.0659 	 -5.11187 	 -9.36238 	 
C 	 -42.6435 	 -6.55353 	 -10.2026 	 
H 	 -41.758 	 -6.02778 	 -10.3101 	 
H 	 -42.6934 	 -7.08232 	 -11.1451 	 
C 	 -42.3797 	 -7.53996 	 -9.03759 	 
H 	 -43.2453 	 -7.87762 	 -8.42527 	 
H 	 -41.7314 	 -6.99621 	 -8.35234 	 
H 	 -41.7388 	 -8.33687 	 -9.32264 	 
H 	 -42.8387 	 -1.37227 	 -6.8666 	 
H 	 -44.93 	 -4.44483 	 -14.4626 	 
