34

S 	 38.6856 	 -26.5209 	 -125.413 	 
C 	 38.3363 	 -24.8288 	 -125.546 	 
C 	 39.4806 	 -24.0853 	 -125.914 	 
C 	 40.672 	 -24.9338 	 -125.93 	 
C 	 40.3305 	 -26.283 	 -125.744 	 
H 	 41.6517 	 -24.713 	 -126.246 	 
C 	 39.5562 	 -22.6166 	 -126.194 	 
H 	 38.5998 	 -22.175 	 -126.306 	 
H 	 40.1074 	 -22.5281 	 -127.157 	 
C 	 40.3444 	 -21.8327 	 -125.107 	 
H 	 41.4058 	 -22.2494 	 -124.983 	 
H 	 40.4258 	 -20.8304 	 -125.435 	 
C 	 39.5226 	 -21.9515 	 -123.756 	 
H 	 38.5314 	 -21.622 	 -123.94 	 
H 	 39.6182 	 -23.0141 	 -123.384 	 
H 	 40.0928 	 -21.3253 	 -123.096 	 
S 	 41.0574 	 -28.5068 	 -127.201 	 
C 	 42.2827 	 -29.5711 	 -126.583 	 
C 	 42.5969 	 -29.23 	 -125.27 	 
C 	 42.0512 	 -28.0102 	 -124.809 	 
C 	 41.2525 	 -27.4332 	 -125.85 	 
H 	 43.2191 	 -29.8757 	 -124.617 	 
C 	 42.2962 	 -27.3834 	 -123.444 	 
H 	 41.9024 	 -26.3872 	 -123.592 	 
H 	 43.3301 	 -27.123 	 -123.303 	 
C 	 41.6554 	 -28.0098 	 -122.18 	 
H 	 42.4043 	 -28.355 	 -121.563 	 
H 	 41.0465 	 -28.8319 	 -122.535 	 
C 	 40.9281 	 -26.9135 	 -121.406 	 
H 	 40.3392 	 -26.1896 	 -121.975 	 
H 	 41.695 	 -26.1715 	 -121.036 	 
H 	 40.4052 	 -27.3423 	 -120.571 	 
H 	 37.4443 	 -24.3636 	 -125.246 	 
H 	 42.7036 	 -30.39 	 -127.193 	 
