34

S 	 -67.9607 	 10.3565 	 -72.5376 	 
C 	 -68.6848 	 10.0008 	 -71.0169 	 
C 	 -67.8417 	 10.3361 	 -69.9432 	 
C 	 -66.6445 	 10.9468 	 -70.424 	 
C 	 -66.5435 	 10.9181 	 -71.8061 	 
H 	 -65.8142 	 11.3021 	 -69.8209 	 
C 	 -67.9803 	 10.2148 	 -68.4699 	 
H 	 -68.8011 	 10.8042 	 -68.0558 	 
H 	 -67.1135 	 10.7014 	 -67.9891 	 
C 	 -68.0174 	 8.68176 	 -68.0883 	 
H 	 -67.111 	 8.22932 	 -68.4031 	 
H 	 -68.0347 	 8.81246 	 -67.0229 	 
C 	 -69.1909 	 7.86973 	 -68.6913 	 
H 	 -70.1238 	 8.30638 	 -68.5526 	 
H 	 -69.1978 	 7.79018 	 -69.7321 	 
H 	 -69.145 	 6.85085 	 -68.2712 	 
S 	 -65.7575 	 12.235 	 -74.0563 	 
C 	 -64.0448 	 12.4575 	 -74.398 	 
C 	 -63.2564 	 11.9356 	 -73.3819 	 
C 	 -64.0514 	 11.3122 	 -72.404 	 
C 	 -65.4053 	 11.4505 	 -72.5891 	 
H 	 -62.1723 	 11.947 	 -73.455 	 
C 	 -63.3531 	 10.3803 	 -71.366 	 
H 	 -63.2479 	 10.8385 	 -70.3407 	 
H 	 -62.3323 	 10.2698 	 -71.5747 	 
C 	 -63.9001 	 8.96819 	 -71.4468 	 
H 	 -63.6995 	 8.57559 	 -72.4293 	 
H 	 -64.9872 	 8.85752 	 -71.2087 	 
C 	 -63.2387 	 8.05382 	 -70.4567 	 
H 	 -62.1796 	 8.16189 	 -70.4151 	 
H 	 -63.4098 	 6.9809 	 -70.6516 	 
H 	 -63.5627 	 8.34778 	 -69.4411 	 
H 	 -69.6775 	 9.48836 	 -70.8777 	 
H 	 -63.6021 	 12.7246 	 -75.2873 	 
