34

S 	 -135.551 	 7.57352 	 -13.6481 	 
C 	 -136.446 	 7.77335 	 -12.1379 	 
C 	 -136.155 	 9.00926 	 -11.5965 	 
C 	 -135.159 	 9.69158 	 -12.3863 	 
C 	 -134.645 	 8.96271 	 -13.458 	 
H 	 -134.778 	 10.7165 	 -12.3125 	 
C 	 -136.698 	 9.52708 	 -10.2953 	 
H 	 -136.337 	 8.90323 	 -9.55049 	 
H 	 -137.839 	 9.49911 	 -10.2205 	 
C 	 -136.191 	 10.9691 	 -9.79746 	 
H 	 -136.446 	 11.0401 	 -8.70686 	 
H 	 -135.09 	 11.0606 	 -9.86922 	 
C 	 -136.742 	 12.3236 	 -10.4462 	 
H 	 -136.672 	 12.3683 	 -11.5551 	 
H 	 -137.872 	 12.4715 	 -10.3906 	 
H 	 -136.311 	 13.1297 	 -9.93434 	 
S 	 -134.09 	 11.0414 	 -15.1453 	 
C 	 -132.664 	 11.012 	 -16.1139 	 
C 	 -131.978 	 9.87379 	 -15.8321 	 
C 	 -132.571 	 8.95965 	 -14.9678 	 
C 	 -133.752 	 9.4671 	 -14.5125 	 
H 	 -131.122 	 9.76937 	 -16.401 	 
C 	 -131.982 	 7.55642 	 -14.6666 	 
H 	 -132.356 	 7.15645 	 -13.6928 	 
H 	 -131.012 	 7.74449 	 -14.441 	 
C 	 -132.245 	 6.45845 	 -15.6915 	 
H 	 -131.677 	 6.61098 	 -16.5774 	 
H 	 -133.266 	 6.43942 	 -15.9723 	 
C 	 -131.896 	 5.07724 	 -14.988 	 
H 	 -130.79 	 4.83876 	 -14.758 	 
H 	 -132.249 	 4.1803 	 -15.5216 	 
H 	 -132.433 	 4.91948 	 -13.9755 	 
H 	 -137.321 	 7.25468 	 -11.8097 	 
H 	 -132.296 	 11.8087 	 -16.7924 	 
