34

S 	 -29.3975 	 18.0201 	 5.61991 	 
C 	 -31.0791 	 17.8435 	 6.02751 	 
C 	 -31.4212 	 18.6971 	 7.05674 	 
C 	 -30.4094 	 19.6469 	 7.37043 	 
C 	 -29.2179 	 19.4488 	 6.70764 	 
H 	 -30.5817 	 20.4502 	 8.10832 	 
C 	 -32.7161 	 18.7989 	 7.72602 	 
H 	 -33.3456 	 18.2219 	 7.11515 	 
H 	 -33.1344 	 19.7896 	 7.66353 	 
C 	 -32.6544 	 18.2955 	 9.17488 	 
H 	 -32.6506 	 17.1422 	 9.17102 	 
H 	 -31.6938 	 18.6402 	 9.65631 	 
C 	 -33.865 	 18.6814 	 9.95716 	 
H 	 -34.7745 	 18.3333 	 9.47138 	 
H 	 -33.7672 	 18.2831 	 11.0048 	 
H 	 -33.9972 	 19.7866 	 10.0681 	 
S 	 -27.3278 	 19.807 	 8.69771 	 
C 	 -25.908 	 20.8147 	 8.40049 	 
C 	 -25.8094 	 21.0197 	 7.02101 	 
C 	 -26.8768 	 20.5432 	 6.2847 	 
C 	 -27.869 	 19.908 	 7.06811 	 
H 	 -24.9147 	 21.5763 	 6.69463 	 
C 	 -27.0442 	 20.8304 	 4.81465 	 
H 	 -27.632 	 21.7642 	 4.85887 	 
H 	 -27.7288 	 20.1345 	 4.36611 	 
C 	 -25.7848 	 20.8123 	 3.99399 	 
H 	 -25.3483 	 19.87 	 4.15396 	 
H 	 -25.1063 	 21.4645 	 4.29888 	 
C 	 -26.0855 	 21.1155 	 2.48698 	 
H 	 -26.7767 	 20.3173 	 2.11982 	 
H 	 -25.2186 	 21.274 	 1.7892 	 
H 	 -26.5159 	 22.1003 	 2.40199 	 
H 	 -31.613 	 17.0768 	 5.57903 	 
H 	 -25.1334 	 21.1992 	 9.11432 	 
