34

S 	 -48.2723 	 16.4078 	 21.4278 	 
C 	 -49.9891 	 16.4861 	 21.3426 	 
C 	 -50.4985 	 15.7928 	 20.2573 	 
C 	 -49.4568 	 15.5203 	 19.2726 	 
C 	 -48.2044 	 16.0278 	 19.6709 	 
H 	 -49.5108 	 15.0154 	 18.3381 	 
C 	 -51.9583 	 15.4247 	 20.159 	 
H 	 -52.3875 	 15.3893 	 19.1361 	 
H 	 -52.5166 	 16.1817 	 20.7264 	 
C 	 -52.2948 	 14.0169 	 20.7479 	 
H 	 -51.6839 	 13.9233 	 21.7236 	 
H 	 -53.3514 	 13.9268 	 20.9322 	 
C 	 -51.8999 	 12.8387 	 19.8497 	 
H 	 -52.3891 	 12.9123 	 18.8889 	 
H 	 -50.9043 	 12.9048 	 19.5149 	 
H 	 -51.9211 	 11.8007 	 20.2867 	 
S 	 -45.6775 	 14.9328 	 19.9076 	 
C 	 -44.6885 	 14.8776 	 18.3679 	 
C 	 -45.3325 	 15.5171 	 17.3047 	 
C 	 -46.5863 	 16.0226 	 17.6778 	 
C 	 -46.9431 	 15.7611 	 18.9779 	 
H 	 -44.7444 	 15.5951 	 16.4431 	 
C 	 -47.4619 	 16.6065 	 16.6372 	 
H 	 -48.5191 	 16.5501 	 16.8204 	 
H 	 -47.3455 	 16.0826 	 15.6963 	 
C 	 -47.1544 	 18.0676 	 16.286 	 
H 	 -47.452 	 18.3526 	 15.2747 	 
H 	 -45.9988 	 18.1359 	 16.3505 	 
C 	 -47.7066 	 18.9807 	 17.353 	 
H 	 -47.632 	 20.0332 	 17.1779 	 
H 	 -47.0881 	 18.992 	 18.2829 	 
H 	 -48.7673 	 18.7193 	 17.5291 	 
H 	 -50.6024 	 16.5194 	 22.1696 	 
H 	 -43.6724 	 14.5634 	 18.3348 	 
