34

S 	 -127.119 	 61.1732 	 -62.5917 	 
C 	 -128.831 	 61.3798 	 -62.6675 	 
C 	 -129.442 	 60.3942 	 -61.8783 	 
C 	 -128.542 	 59.6065 	 -61.1417 	 
C 	 -127.252 	 59.9104 	 -61.3989 	 
H 	 -128.689 	 58.8673 	 -60.3596 	 
C 	 -130.929 	 60.3409 	 -61.6937 	 
H 	 -131.268 	 61.335 	 -61.3469 	 
H 	 -131.109 	 59.598 	 -60.9535 	 
C 	 -131.84 	 60.0551 	 -62.9275 	 
H 	 -131.422 	 60.2848 	 -63.9037 	 
H 	 -131.959 	 58.9883 	 -62.9304 	 
C 	 -133.266 	 60.8305 	 -62.972 	 
H 	 -133.88 	 60.471 	 -62.1167 	 
H 	 -133.11 	 61.905 	 -62.7717 	 
H 	 -133.66 	 60.543 	 -63.93 	 
S 	 -125.046 	 58.4185 	 -61.8551 	 
C 	 -124.239 	 57.6318 	 -60.5429 	 
C 	 -124.757 	 58.0269 	 -59.3553 	 
C 	 -125.817 	 58.9621 	 -59.4639 	 
C 	 -126.129 	 59.2482 	 -60.7891 	 
H 	 -124.275 	 57.6102 	 -58.4609 	 
C 	 -126.665 	 59.4226 	 -58.3009 	 
H 	 -127.627 	 58.9152 	 -58.2076 	 
H 	 -126.894 	 60.4673 	 -58.4445 	 
C 	 -126.085 	 59.4648 	 -56.9457 	 
H 	 -125.152 	 59.9544 	 -57.0708 	 
H 	 -125.941 	 58.5164 	 -56.4134 	 
C 	 -126.814 	 60.4052 	 -56.0015 	 
H 	 -127.437 	 61.0955 	 -56.5034 	 
H 	 -126.026 	 61.0512 	 -55.605 	 
H 	 -127.336 	 59.9724 	 -55.2079 	 
H 	 -129.354 	 62.1515 	 -63.3344 	 
H 	 -123.329 	 57.0324 	 -60.6275 	 
