34

S 	 -129.072 	 73.2916 	 -42.4241 	 
C 	 -130.306 	 74.3841 	 -43.0209 	 
C 	 -129.972 	 74.8558 	 -44.2322 	 
C 	 -128.717 	 74.3659 	 -44.7206 	 
C 	 -128.187 	 73.3745 	 -43.901 	 
H 	 -128.243 	 74.6942 	 -45.5889 	 
C 	 -130.785 	 75.8638 	 -45.0133 	 
H 	 -130.058 	 76.5083 	 -45.4477 	 
H 	 -131.28 	 76.5615 	 -44.2193 	 
C 	 -131.692 	 75.2369 	 -46.0822 	 
H 	 -132.622 	 75.0107 	 -45.7342 	 
H 	 -131.888 	 76.06 	 -46.7277 	 
C 	 -131.196 	 74.1076 	 -47.0414 	 
H 	 -130.169 	 74.236 	 -47.3518 	 
H 	 -131.128 	 73.1616 	 -46.5905 	 
H 	 -131.81 	 74.1145 	 -47.8947 	 
S 	 -125.775 	 72.7185 	 -42.6945 	 
C 	 -124.701 	 71.6768 	 -43.4145 	 
C 	 -125.061 	 71.4131 	 -44.7494 	 
C 	 -126.354 	 71.9566 	 -45.0259 	 
C 	 -126.937 	 72.6399 	 -43.9796 	 
H 	 -124.504 	 70.8386 	 -45.4622 	 
C 	 -127.048 	 71.5475 	 -46.3161 	 
H 	 -128.069 	 71.4256 	 -46.0876 	 
H 	 -126.804 	 70.566 	 -46.7233 	 
C 	 -126.96 	 72.513 	 -47.5111 	 
H 	 -125.891 	 72.7181 	 -47.473 	 
H 	 -127.387 	 73.47 	 -47.2601 	 
C 	 -127.385 	 71.875 	 -48.8802 	 
H 	 -128.448 	 71.6793 	 -49.1136 	 
H 	 -126.92 	 70.8746 	 -49.031 	 
H 	 -127.083 	 72.5305 	 -49.6789 	 
H 	 -131.16 	 74.7317 	 -42.4882 	 
H 	 -123.88 	 71.3469 	 -42.9258 	 
