34

S 	 -86.58 	 -3.67468 	 -114.815 	 
C 	 -86.4003 	 -3.51556 	 -116.534 	 
C 	 -87.6204 	 -3.21991 	 -117.248 	 
C 	 -88.6516 	 -3.15829 	 -116.335 	 
C 	 -88.2994 	 -3.37112 	 -115.026 	 
H 	 -89.6166 	 -2.9147 	 -116.536 	 
C 	 -87.6687 	 -3.00529 	 -118.729 	 
H 	 -87.9359 	 -3.90297 	 -119.205 	 
H 	 -86.6574 	 -2.83158 	 -119.089 	 
C 	 -88.5789 	 -1.95505 	 -119.291 	 
H 	 -88.8563 	 -2.09168 	 -120.346 	 
H 	 -89.5898 	 -1.94088 	 -118.76 	 
C 	 -87.8857 	 -0.614159 	 -118.977 	 
H 	 -87.6468 	 -0.532171 	 -117.927 	 
H 	 -86.9788 	 -0.275184 	 -119.586 	 
H 	 -88.5481 	 0.208657 	 -119.077 	 
S 	 -88.846 	 -4.40606 	 -112.58 	 
C 	 -90.3293 	 -4.18454 	 -111.8 	 
C 	 -90.9142 	 -3.10364 	 -112.371 	 
C 	 -90.2792 	 -2.53099 	 -113.563 	 
C 	 -89.0997 	 -3.23139 	 -113.849 	 
H 	 -91.8582 	 -2.82049 	 -112.013 	 
C 	 -90.9249 	 -1.46242 	 -114.411 	 
H 	 -91.9564 	 -1.45655 	 -114.254 	 
H 	 -90.764 	 -1.42059 	 -115.467 	 
C 	 -90.5381 	 -0.00600573 	 -113.978 	 
H 	 -91.0189 	 0.11313 	 -113.003 	 
H 	 -91.2054 	 0.640163 	 -114.577 	 
C 	 -89.0583 	 0.407914 	 -114.141 	 
H 	 -88.7364 	 1.42533 	 -113.88 	 
H 	 -88.8408 	 0.33967 	 -115.252 	 
H 	 -88.3935 	 -0.221797 	 -113.568 	 
H 	 -85.4397 	 -3.57667 	 -117.028 	 
H 	 -90.7523 	 -4.73033 	 -110.893 	 
