34

S 	 -57.94 	 3.08501 	 -33.1103 	 
C 	 -58.5817 	 2.86071 	 -34.7402 	 
C 	 -57.7388 	 3.47212 	 -35.7037 	 
C 	 -56.5219 	 3.90697 	 -35.035 	 
C 	 -56.5499 	 3.90951 	 -33.6659 	 
H 	 -55.5784 	 4.27311 	 -35.4735 	 
C 	 -57.9698 	 3.62749 	 -37.2315 	 
H 	 -59.0053 	 3.30356 	 -37.3192 	 
H 	 -57.4011 	 2.85796 	 -37.7846 	 
C 	 -57.8823 	 5.03812 	 -37.8001 	 
H 	 -58.7908 	 5.48383 	 -37.4676 	 
H 	 -57.0025 	 5.63341 	 -37.5251 	 
C 	 -57.8017 	 4.97428 	 -39.3327 	 
H 	 -57.6455 	 5.95495 	 -39.6599 	 
H 	 -56.8514 	 4.44932 	 -39.5172 	 
H 	 -58.7028 	 4.49585 	 -39.765 	 
S 	 -54.1969 	 3.32913 	 -32.4527 	 
C 	 -53.3604 	 4.57755 	 -31.6125 	 
C 	 -54.1178 	 5.7131 	 -31.5445 	 
C 	 -55.3113 	 5.73756 	 -32.2614 	 
C 	 -55.512 	 4.44161 	 -32.8209 	 
H 	 -53.7984 	 6.4934 	 -30.9145 	 
C 	 -56.2226 	 6.87926 	 -32.361 	 
H 	 -56.0882 	 7.37931 	 -31.3782 	 
H 	 -57.295 	 6.63555 	 -32.4613 	 
C 	 -55.7866 	 7.93409 	 -33.4852 	 
H 	 -55.4886 	 7.31108 	 -34.3292 	 
H 	 -54.8358 	 8.41358 	 -33.3023 	 
C 	 -56.9039 	 9.01494 	 -33.7499 	 
H 	 -56.8968 	 9.5444 	 -32.7782 	 
H 	 -57.8861 	 8.54376 	 -33.9054 	 
H 	 -56.6684 	 9.57558 	 -34.6366 	 
H 	 -59.5009 	 2.32225 	 -35.0692 	 
H 	 -52.521 	 4.35156 	 -30.927 	 
