34

S 	 -99.3645 	 13.829 	 -122.379 	 
C 	 -97.9266 	 14.5532 	 -121.627 	 
C 	 -98.2813 	 15.2225 	 -120.448 	 
C 	 -99.6087 	 14.8547 	 -120.067 	 
C 	 -100.301 	 13.9674 	 -120.905 	 
H 	 -100.158 	 15.3322 	 -119.236 	 
C 	 -97.315 	 16.1349 	 -119.683 	 
H 	 -97.9031 	 16.868 	 -119.101 	 
H 	 -96.7042 	 16.6957 	 -120.369 	 
C 	 -96.3963 	 15.3353 	 -118.692 	 
H 	 -96.9245 	 14.6271 	 -118.131 	 
H 	 -95.7285 	 14.6678 	 -119.339 	 
C 	 -95.4319 	 16.2556 	 -117.931 	 
H 	 -95.9613 	 17.0934 	 -117.501 	 
H 	 -94.8712 	 15.7207 	 -117.169 	 
H 	 -94.6864 	 16.5934 	 -118.552 	 
S 	 -102.797 	 14.5298 	 -121.68 	 
C 	 -104.085 	 13.5348 	 -121.105 	 
C 	 -103.721 	 12.7274 	 -120.061 	 
C 	 -102.29 	 12.7773 	 -119.831 	 
C 	 -101.685 	 13.6355 	 -120.746 	 
H 	 -104.453 	 12.0239 	 -119.689 	 
C 	 -101.664 	 11.8086 	 -118.858 	 
H 	 -101.839 	 12.3161 	 -117.884 	 
H 	 -100.673 	 11.8147 	 -119.074 	 
C 	 -102.227 	 10.3996 	 -118.759 	 
H 	 -102.168 	 9.8969 	 -119.679 	 
H 	 -103.31 	 10.3647 	 -118.505 	 
C 	 -101.506 	 9.50619 	 -117.686 	 
H 	 -101.91 	 9.86876 	 -116.725 	 
H 	 -100.422 	 9.58964 	 -117.82 	 
H 	 -101.728 	 8.42717 	 -117.795 	 
H 	 -97.0008 	 14.6672 	 -122.016 	 
H 	 -105.077 	 13.6077 	 -121.518 	 
