34

S 	 -65.147 	 -1.59094 	 -20.2705 	 
C 	 -65.6924 	 -1.05718 	 -18.6331 	 
C 	 -64.6762 	 -0.786564 	 -17.8247 	 
C 	 -63.4996 	 -0.526891 	 -18.6558 	 
C 	 -63.5032 	 -1.07732 	 -19.9236 	 
H 	 -62.6178 	 -0.0550571 	 -18.2781 	 
C 	 -64.8231 	 -0.330537 	 -16.4136 	 
H 	 -65.6235 	 -0.921343 	 -15.9932 	 
H 	 -65.0836 	 0.74669 	 -16.2489 	 
C 	 -63.6095 	 -0.583049 	 -15.5526 	 
H 	 -62.8372 	 0.159505 	 -15.669 	 
H 	 -63.937 	 -0.563357 	 -14.5293 	 
C 	 -62.8863 	 -1.92233 	 -15.6089 	 
H 	 -62.5212 	 -2.01653 	 -16.6092 	 
H 	 -62.0077 	 -1.90306 	 -14.9307 	 
H 	 -63.5185 	 -2.7886 	 -15.3069 	 
S 	 -62.8102 	 -0.112822 	 -22.4614 	 
C 	 -61.2317 	 -0.508153 	 -23.0215 	 
C 	 -60.5823 	 -1.44332 	 -22.2061 	 
C 	 -61.3439 	 -1.75807 	 -21.0416 	 
C 	 -62.5369 	 -1.03089 	 -21.0181 	 
H 	 -59.588 	 -1.8135 	 -22.3261 	 
C 	 -60.93 	 -2.81672 	 -20.1576 	 
H 	 -61.7435 	 -3.25202 	 -19.5529 	 
H 	 -60.1106 	 -2.35654 	 -19.5376 	 
C 	 -60.4791 	 -4.12137 	 -20.8873 	 
H 	 -60.201 	 -4.78418 	 -20.0336 	 
H 	 -59.5299 	 -3.89191 	 -21.3494 	 
C 	 -61.4308 	 -4.71076 	 -22.0002 	 
H 	 -61.2028 	 -5.73715 	 -22.358 	 
H 	 -61.5741 	 -3.9829 	 -22.777 	 
H 	 -62.3753 	 -4.81521 	 -21.4447 	 
H 	 -66.7155 	 -1.34421 	 -18.205 	 
H 	 -60.8146 	 -0.281754 	 -23.9752 	 
