34

S 	 -48.0224 	 21.098 	 27.9812 	 
C 	 -46.4349 	 20.3311 	 28.242 	 
C 	 -45.7789 	 20.9452 	 29.2791 	 
C 	 -46.5808 	 21.8821 	 30.0227 	 
C 	 -47.7962 	 22.2094 	 29.4338 	 
H 	 -46.1232 	 22.5147 	 30.7739 	 
C 	 -44.3129 	 20.7947 	 29.7197 	 
H 	 -44.0701 	 19.6575 	 29.6635 	 
H 	 -44.2119 	 21.0316 	 30.8195 	 
C 	 -43.3473 	 21.5312 	 28.7799 	 
H 	 -43.7235 	 21.3465 	 27.737 	 
H 	 -43.5412 	 22.5819 	 28.8712 	 
C 	 -41.8877 	 21.1208 	 28.996 	 
H 	 -41.7967 	 20.0458 	 28.914 	 
H 	 -41.0851 	 21.4835 	 28.346 	 
H 	 -41.5359 	 21.4509 	 30.0221 	 
S 	 -49.3641 	 22.7629 	 31.5513 	 
C 	 -50.7272 	 23.8046 	 31.4936 	 
C 	 -50.6308 	 24.5926 	 30.3405 	 
C 	 -49.6124 	 24.1045 	 29.4397 	 
C 	 -48.821 	 23.0807 	 29.9317 	 
H 	 -51.2461 	 25.4773 	 30.0729 	 
C 	 -49.4882 	 24.7673 	 28.101 	 
H 	 -50.4639 	 24.6873 	 27.6071 	 
H 	 -48.708 	 24.2494 	 27.5686 	 
C 	 -49.0751 	 26.2292 	 28.1907 	 
H 	 -49.8841 	 26.8415 	 28.6052 	 
H 	 -49.0072 	 26.7308 	 27.2163 	 
C 	 -47.7067 	 26.3439 	 28.9062 	 
H 	 -46.9442 	 26.2017 	 28.1444 	 
H 	 -47.525 	 25.6662 	 29.753 	 
H 	 -47.627 	 27.2911 	 29.4816 	 
H 	 -45.9313 	 19.5482 	 27.6823 	 
H 	 -51.2924 	 24.1679 	 32.3383 	 
