34

S 	 35.4168 	 -31.4833 	 -111.266 	 
C 	 34.6908 	 -33.0652 	 -111.22 	 
C 	 35.2807 	 -33.961 	 -112.111 	 
C 	 36.366 	 -33.352 	 -112.765 	 
C 	 36.5677 	 -32.062 	 -112.407 	 
H 	 37.0019 	 -33.8282 	 -113.493 	 
C 	 34.9146 	 -35.4497 	 -112.372 	 
H 	 34.5302 	 -35.8105 	 -111.403 	 
H 	 35.8913 	 -35.9914 	 -112.699 	 
C 	 33.8489 	 -35.6726 	 -113.447 	 
H 	 32.9784 	 -35.0663 	 -113.171 	 
H 	 34.3323 	 -35.3453 	 -114.365 	 
C 	 33.3035 	 -37.0748 	 -113.646 	 
H 	 32.4813 	 -37.227 	 -112.978 	 
H 	 32.8791 	 -37.1746 	 -114.548 	 
H 	 34.1013 	 -37.8057 	 -113.451 	 
S 	 37.5109 	 -29.7073 	 -113.473 	 
C 	 39.2038 	 -29.4101 	 -113.51 	 
C 	 39.9375 	 -30.4281 	 -113.029 	 
C 	 39.1207 	 -31.4681 	 -112.412 	 
C 	 37.7524 	 -31.2349 	 -112.671 	 
H 	 40.9916 	 -30.4236 	 -113.101 	 
C 	 39.7973 	 -32.5638 	 -111.64 	 
H 	 39.1622 	 -33.483 	 -111.612 	 
H 	 40.0006 	 -32.1906 	 -110.664 	 
C 	 41.1923 	 -33.0087 	 -112.215 	 
H 	 41.6025 	 -33.8421 	 -111.618 	 
H 	 42.0513 	 -32.3025 	 -112.339 	 
C 	 40.8965 	 -33.6395 	 -113.586 	 
H 	 40.5873 	 -32.9112 	 -114.365 	 
H 	 40.1652 	 -34.4618 	 -113.449 	 
H 	 41.8685 	 -34.1217 	 -113.888 	 
H 	 33.7537 	 -33.2907 	 -110.616 	 
H 	 39.6924 	 -28.5356 	 -113.952 	 
