34

S 	 -123.947 	 55.7079 	 -33.0234 	 
C 	 -122.696 	 55.2011 	 -31.7405 	 
C 	 -121.448 	 55.1535 	 -32.3126 	 
C 	 -121.453 	 55.427 	 -33.7156 	 
C 	 -122.68 	 55.7086 	 -34.2964 	 
H 	 -120.529 	 55.5323 	 -34.3036 	 
C 	 -120.18 	 54.8169 	 -31.5751 	 
H 	 -120.425 	 54.6608 	 -30.5063 	 
H 	 -119.525 	 55.6781 	 -31.7072 	 
C 	 -119.385 	 53.6064 	 -32.1907 	 
H 	 -119.21 	 53.9457 	 -33.2048 	 
H 	 -118.386 	 53.5549 	 -31.6132 	 
C 	 -120.172 	 52.2851 	 -32.2526 	 
H 	 -120.478 	 51.7847 	 -31.3077 	 
H 	 -121.133 	 52.3559 	 -32.7218 	 
H 	 -119.62 	 51.451 	 -32.6449 	 
S 	 -123.56 	 57.8156 	 -35.9296 	 
C 	 -123.285 	 57.7106 	 -37.6642 	 
C 	 -122.792 	 56.5406 	 -38.0278 	 
C 	 -122.466 	 55.7041 	 -36.858 	 
C 	 -122.846 	 56.2405 	 -35.691 	 
H 	 -122.517 	 56.3916 	 -39.0438 	 
C 	 -121.849 	 54.3745 	 -37.0437 	 
H 	 -120.827 	 54.5441 	 -36.5843 	 
H 	 -121.726 	 54.3469 	 -38.1316 	 
C 	 -122.448 	 53.0711 	 -36.5123 	 
H 	 -123.485 	 53.068 	 -36.7624 	 
H 	 -122.549 	 53.2517 	 -35.4214 	 
C 	 -121.677 	 51.7316 	 -36.7172 	 
H 	 -122.153 	 50.9071 	 -36.2139 	 
H 	 -120.667 	 51.8005 	 -36.3979 	 
H 	 -121.535 	 51.5471 	 -37.7938 	 
H 	 -122.975 	 55.063 	 -30.7198 	 
H 	 -123.557 	 58.5574 	 -38.3366 	 
