34

S 	 1.95152 	 -21.941 	 -114.267 	 
C 	 2.49446 	 -20.3192 	 -113.902 	 
C 	 1.47321 	 -19.535 	 -113.409 	 
C 	 0.231664 	 -20.2158 	 -113.335 	 
C 	 0.337457 	 -21.565 	 -113.581 	 
H 	 -0.698377 	 -19.7306 	 -113.069 	 
C 	 1.6433 	 -17.9967 	 -113.202 	 
H 	 2.62637 	 -17.92 	 -112.715 	 
H 	 0.990011 	 -17.6298 	 -112.409 	 
C 	 1.73433 	 -17.1928 	 -114.513 	 
H 	 0.779113 	 -17.1728 	 -115.117 	 
H 	 1.70739 	 -16.1371 	 -114.301 	 
C 	 2.87351 	 -17.5159 	 -115.541 	 
H 	 2.61864 	 -18.3836 	 -116.113 	 
H 	 2.93136 	 -16.6639 	 -116.304 	 
H 	 3.88124 	 -17.5064 	 -115.153 	 
S 	 -0.482958 	 -23.66 	 -112.029 	 
C 	 -2.11335 	 -24.271 	 -112.105 	 
C 	 -2.87804 	 -23.5402 	 -113.036 	 
C 	 -2.13365 	 -22.4485 	 -113.598 	 
C 	 -0.755729 	 -22.4458 	 -113.311 	 
H 	 -3.95788 	 -23.9158 	 -113.072 	 
C 	 -2.86893 	 -21.3281 	 -114.312 	 
H 	 -2.21435 	 -20.9308 	 -115.136 	 
H 	 -3.0915 	 -20.5132 	 -113.667 	 
C 	 -4.20899 	 -21.6469 	 -114.901 	 
H 	 -4.62888 	 -20.651 	 -115.161 	 
H 	 -4.8707 	 -22.1231 	 -114.165 	 
C 	 -4.03566 	 -22.55 	 -116.103 	 
H 	 -3.80864 	 -23.5388 	 -115.819 	 
H 	 -3.25922 	 -22.2165 	 -116.757 	 
H 	 -4.9597 	 -22.6877 	 -116.684 	 
H 	 3.515 	 -19.9108 	 -113.972 	 
H 	 -2.53514 	 -25.0533 	 -111.452 	 
