34

S 	 -16.5437 	 -25.1328 	 -93.4957 	 
C 	 -15.2408 	 -26.3899 	 -93.2103 	 
C 	 -15.6875 	 -27.6027 	 -93.7262 	 
C 	 -16.9284 	 -27.5026 	 -94.4257 	 
C 	 -17.4189 	 -26.2395 	 -94.5179 	 
H 	 -17.4398 	 -28.2851 	 -94.9049 	 
C 	 -15.0115 	 -28.9419 	 -93.3912 	 
H 	 -15.6997 	 -29.7374 	 -93.3125 	 
H 	 -14.6071 	 -28.7599 	 -92.3397 	 
C 	 -14.0232 	 -29.5232 	 -94.3452 	 
H 	 -13.6287 	 -30.4743 	 -93.8975 	 
H 	 -14.4871 	 -29.7931 	 -95.3076 	 
C 	 -12.8249 	 -28.5261 	 -94.647 	 
H 	 -12.2895 	 -28.3951 	 -93.7784 	 
H 	 -12.0265 	 -28.8145 	 -95.3658 	 
H 	 -13.1168 	 -27.5049 	 -94.8416 	 
S 	 -19.9423 	 -25.151 	 -94.0707 	 
C 	 -21.1784 	 -25.1996 	 -95.3277 	 
C 	 -20.6777 	 -25.8982 	 -96.4342 	 
C 	 -19.3181 	 -26.3924 	 -96.3448 	 
C 	 -18.722 	 -25.9191 	 -95.1512 	 
H 	 -21.3384 	 -26.1364 	 -97.2414 	 
C 	 -18.5823 	 -26.9908 	 -97.5102 	 
H 	 -18.5793 	 -28.0504 	 -97.2812 	 
H 	 -17.58 	 -26.649 	 -97.4551 	 
C 	 -19.027 	 -26.9506 	 -98.9534 	 
H 	 -20.0534 	 -27.3052 	 -99.0764 	 
H 	 -18.3566 	 -27.6273 	 -99.5002 	 
C 	 -19.0358 	 -25.5326 	 -99.5466 	 
H 	 -19.6227 	 -25.529 	 -100.514 	 
H 	 -17.9924 	 -25.2187 	 -99.7679 	 
H 	 -19.5269 	 -24.8962 	 -98.7032 	 
H 	 -14.237 	 -26.203 	 -92.7822 	 
H 	 -22.2201 	 -24.9608 	 -95.2395 	 
