34

S 	 -119.754 	 62.4603 	 -36.0674 	 
C 	 -118.235 	 62.6555 	 -35.2206 	 
C 	 -118.154 	 63.8942 	 -34.6023 	 
C 	 -119.353 	 64.663 	 -34.7427 	 
C 	 -120.37 	 63.9867 	 -35.4549 	 
H 	 -119.617 	 65.6591 	 -34.3647 	 
C 	 -116.961 	 64.3873 	 -33.7785 	 
H 	 -116.572 	 65.1629 	 -34.4036 	 
H 	 -116.26 	 63.5999 	 -33.8889 	 
C 	 -117.101 	 64.7058 	 -32.255 	 
H 	 -116.13 	 64.8524 	 -31.7948 	 
H 	 -117.625 	 65.692 	 -32.1571 	 
C 	 -117.782 	 63.6361 	 -31.3645 	 
H 	 -118.737 	 63.3433 	 -31.7913 	 
H 	 -117.144 	 62.756 	 -31.2549 	 
H 	 -118.08 	 64.0917 	 -30.474 	 
S 	 -122.198 	 65.8332 	 -36.5073 	 
C 	 -123.887 	 65.4222 	 -36.424 	 
C 	 -124.13 	 64.3226 	 -35.6957 	 
C 	 -122.956 	 63.6236 	 -35.2612 	 
C 	 -121.821 	 64.2901 	 -35.6365 	 
H 	 -125.161 	 64.149 	 -35.2717 	 
C 	 -123.059 	 62.387 	 -34.3863 	 
H 	 -122.175 	 61.8271 	 -34.6463 	 
H 	 -123.88 	 61.6993 	 -34.6559 	 
C 	 -122.948 	 62.6801 	 -32.9228 	 
H 	 -123.768 	 63.3105 	 -32.5895 	 
H 	 -122.121 	 63.375 	 -32.6693 	 
C 	 -122.747 	 61.4741 	 -32.0221 	 
H 	 -122.795 	 61.8888 	 -31.0473 	 
H 	 -121.757 	 61.005 	 -32.0637 	 
H 	 -123.571 	 60.7296 	 -32.1561 	 
H 	 -117.406 	 61.9935 	 -35.2195 	 
H 	 -124.636 	 66.1526 	 -36.6218 	 
