34

S 	 -90.5183 	 -35.5512 	 -58.3397 	 
C 	 -90.5883 	 -37.0034 	 -57.25 	 
C 	 -91.0483 	 -36.6235 	 -55.9478 	 
C 	 -91.3538 	 -35.249 	 -55.8365 	 
C 	 -91.2438 	 -34.5695 	 -57.0299 	 
H 	 -91.6256 	 -34.6593 	 -54.986 	 
C 	 -91.1293 	 -37.5749 	 -54.7764 	 
H 	 -90.559 	 -37.0663 	 -53.8859 	 
H 	 -90.6961 	 -38.5146 	 -54.9798 	 
C 	 -92.6224 	 -37.8913 	 -54.2677 	 
H 	 -92.9473 	 -37.042 	 -53.6886 	 
H 	 -93.2897 	 -38.1083 	 -55.0355 	 
C 	 -92.7081 	 -39.1785 	 -53.3998 	 
H 	 -91.9865 	 -39.1859 	 -52.5191 	 
H 	 -93.703 	 -39.2896 	 -52.9386 	 
H 	 -92.6909 	 -40.1494 	 -53.9344 	 
S 	 -90.2005 	 -32.1263 	 -56.8016 	 
C 	 -91.2949 	 -30.7442 	 -56.8028 	 
C 	 -92.5957 	 -31.0997 	 -57.0976 	 
C 	 -92.724 	 -32.5134 	 -57.2208 	 
C 	 -91.479 	 -33.2035 	 -57.1277 	 
H 	 -93.4827 	 -30.4217 	 -57.1912 	 
C 	 -94.0493 	 -33.2523 	 -57.2615 	 
H 	 -94.0207 	 -34.1945 	 -57.7473 	 
H 	 -94.5283 	 -32.6133 	 -58.0033 	 
C 	 -94.6819 	 -33.5103 	 -55.8494 	 
H 	 -94.7142 	 -32.5252 	 -55.4047 	 
H 	 -94.0732 	 -34.2059 	 -55.3056 	 
C 	 -96.0479 	 -34.1169 	 -55.9376 	 
H 	 -96.0127 	 -35.0747 	 -56.4498 	 
H 	 -96.751 	 -33.535 	 -56.5701 	 
H 	 -96.3943 	 -34.3789 	 -54.8989 	 
H 	 -90.093 	 -37.9443 	 -57.503 	 
H 	 -91.1259 	 -29.7622 	 -56.3638 	 
