34

S 	 -98.3976 	 1.17994 	 -105.107 	 
C 	 -98.1285 	 2.41838 	 -106.314 	 
C 	 -99.1737 	 3.35803 	 -106.283 	 
C 	 -100.015 	 3.14379 	 -105.135 	 
C 	 -99.5331 	 2.08457 	 -104.285 	 
H 	 -100.837 	 3.80311 	 -104.822 	 
C 	 -99.4336 	 4.45598 	 -107.394 	 
H 	 -100.312 	 4.17888 	 -107.973 	 
H 	 -98.5731 	 4.25031 	 -108.032 	 
C 	 -99.5832 	 5.88544 	 -106.809 	 
H 	 -100.316 	 5.84758 	 -105.957 	 
H 	 -98.6189 	 6.2086 	 -106.516 	 
C 	 -100.271 	 6.91771 	 -107.744 	 
H 	 -99.9323 	 6.89632 	 -108.749 	 
H 	 -101.275 	 6.69484 	 -107.595 	 
H 	 -100.105 	 7.82483 	 -107.149 	 
S 	 -98.9453 	 1.26292 	 -101.733 	 
C 	 -100.238 	 0.914822 	 -100.614 	 
C 	 -101.516 	 1.04645 	 -101.229 	 
C 	 -101.368 	 1.35105 	 -102.632 	 
C 	 -100.058 	 1.68545 	 -102.994 	 
H 	 -102.457 	 0.922862 	 -100.675 	 
C 	 -102.639 	 1.36753 	 -103.477 	 
H 	 -102.602 	 2.33622 	 -103.986 	 
H 	 -103.4 	 1.3728 	 -102.749 	 
C 	 -102.831 	 0.286638 	 -104.56 	 
H 	 -103.336 	 -0.573592 	 -104.045 	 
H 	 -101.911 	 -0.181465 	 -104.877 	 
C 	 -103.534 	 0.669411 	 -105.92 	 
H 	 -104.414 	 1.34953 	 -105.876 	 
H 	 -103.98 	 -0.216789 	 -106.374 	 
H 	 -102.68 	 1.03333 	 -106.571 	 
H 	 -97.3758 	 2.47175 	 -107.088 	 
H 	 -100.131 	 0.560817 	 -99.5961 	 
