34

S 	 -120.448 	 26.2823 	 -116.32 	 
C 	 -119.846 	 25.8138 	 -117.966 	 
C 	 -119.16 	 26.8035 	 -118.618 	 
C 	 -119.044 	 27.9589 	 -117.764 	 
C 	 -119.735 	 27.8654 	 -116.601 	 
H 	 -118.493 	 28.7623 	 -117.983 	 
C 	 -118.625 	 26.669 	 -120.021 	 
H 	 -118.199 	 25.674 	 -120.184 	 
H 	 -117.738 	 27.4021 	 -120.003 	 
C 	 -119.553 	 26.9942 	 -121.26 	 
H 	 -119.701 	 28.0356 	 -121.369 	 
H 	 -118.958 	 26.8376 	 -122.108 	 
C 	 -120.771 	 26.0065 	 -121.437 	 
H 	 -121.493 	 26.3253 	 -122.203 	 
H 	 -120.472 	 25.0044 	 -121.773 	 
H 	 -121.279 	 26.0201 	 -120.466 	 
S 	 -121.247 	 29.9343 	 -115.496 	 
C 	 -120.844 	 30.5395 	 -113.935 	 
C 	 -119.683 	 29.9594 	 -113.46 	 
C 	 -119.129 	 28.9879 	 -114.369 	 
C 	 -119.87 	 28.8604 	 -115.529 	 
H 	 -119.305 	 30.3054 	 -112.532 	 
C 	 -117.875 	 28.1852 	 -114.13 	 
H 	 -117.44 	 28.1195 	 -115.101 	 
H 	 -118.254 	 27.1448 	 -113.889 	 
C 	 -116.901 	 28.6602 	 -113.037 	 
H 	 -115.974 	 28.0619 	 -112.929 	 
H 	 -117.457 	 28.6135 	 -112.061 	 
C 	 -116.356 	 30.0735 	 -113.224 	 
H 	 -115.339 	 30.0647 	 -113.501 	 
H 	 -116.473 	 30.6607 	 -112.366 	 
H 	 -116.887 	 30.5214 	 -114.058 	 
H 	 -120.06 	 24.9165 	 -118.478 	 
H 	 -121.108 	 31.5209 	 -113.578 	 
