34

S 	 -61.5864 	 9.88207 	 22.3411 	 
C 	 -59.8843 	 10.0388 	 22.0344 	 
C 	 -59.1593 	 8.94847 	 22.5168 	 
C 	 -60.055 	 7.89754 	 23.0259 	 
C 	 -61.4079 	 8.21989 	 22.848 	 
H 	 -59.6645 	 6.95009 	 23.3873 	 
C 	 -57.6394 	 8.8481 	 22.6191 	 
H 	 -57.267 	 8.13088 	 23.3776 	 
H 	 -57.1554 	 9.80532 	 22.8034 	 
C 	 -56.922 	 8.19742 	 21.4303 	 
H 	 -57.3352 	 7.14853 	 21.4017 	 
H 	 -57.2101 	 8.59298 	 20.4512 	 
C 	 -55.3721 	 8.2843 	 21.4103 	 
H 	 -55.0853 	 9.36994 	 21.5387 	 
H 	 -55.087 	 7.87082 	 22.3625 	 
H 	 -54.7369 	 7.96587 	 20.5387 	 
S 	 -63.4833 	 8.52344 	 24.6237 	 
C 	 -64.5118 	 7.20967 	 24.976 	 
C 	 -64.2387 	 6.14699 	 24.2836 	 
C 	 -63.0898 	 6.25797 	 23.4075 	 
C 	 -62.532 	 7.54868 	 23.4678 	 
H 	 -64.7681 	 5.22351 	 24.3543 	 
C 	 -62.6092 	 5.06925 	 22.5478 	 
H 	 -61.8985 	 5.36592 	 21.7677 	 
H 	 -63.4618 	 4.62206 	 22.1061 	 
C 	 -61.8524 	 3.92761 	 23.2339 	 
H 	 -62.4982 	 3.52447 	 24.0367 	 
H 	 -60.9308 	 4.38775 	 23.6691 	 
C 	 -61.4635 	 2.83969 	 22.2128 	 
H 	 -60.5869 	 2.24274 	 22.5418 	 
H 	 -61.1646 	 3.3512 	 21.2879 	 
H 	 -62.3401 	 2.26128 	 21.8676 	 
H 	 -59.4655 	 10.814 	 21.3533 	 
H 	 -65.3202 	 7.22272 	 25.6767 	 
