34

S 	 -104.73 	 47.1263 	 -97.7549 	 
C 	 -106.152 	 48.0601 	 -98.2777 	 
C 	 -105.956 	 48.7858 	 -99.4524 	 
C 	 -104.697 	 48.4299 	 -100.045 	 
C 	 -103.939 	 47.6135 	 -99.2639 	 
H 	 -104.413 	 48.709 	 -101.017 	 
C 	 -107.009 	 49.512 	 -100.19 	 
H 	 -107.634 	 49.942 	 -99.4479 	 
H 	 -107.448 	 48.6639 	 -100.657 	 
C 	 -106.544 	 50.6241 	 -101.161 	 
H 	 -106.048 	 50.2495 	 -102.1 	 
H 	 -107.499 	 50.9825 	 -101.46 	 
C 	 -105.704 	 51.7962 	 -100.563 	 
H 	 -106.016 	 52.1703 	 -99.5914 	 
H 	 -104.714 	 51.4198 	 -100.248 	 
H 	 -105.644 	 52.5871 	 -101.292 	 
S 	 -102.623 	 45.3013 	 -100.053 	 
C 	 -100.961 	 45.2395 	 -100.214 	 
C 	 -100.505 	 46.51 	 -100.113 	 
C 	 -101.39 	 47.4526 	 -99.6078 	 
C 	 -102.673 	 47.0063 	 -99.7025 	 
H 	 -99.4336 	 46.588 	 -100.217 	 
C 	 -101.044 	 48.8767 	 -99.3304 	 
H 	 -101.946 	 49.471 	 -99.2558 	 
H 	 -100.481 	 49.3947 	 -100.153 	 
C 	 -100.122 	 49.1379 	 -98.0523 	 
H 	 -99.8837 	 50.1483 	 -97.797 	 
H 	 -99.1011 	 48.685 	 -98.1357 	 
C 	 -100.771 	 48.5228 	 -96.7744 	 
H 	 -100.164 	 48.6078 	 -95.9311 	 
H 	 -101.181 	 47.5184 	 -96.8685 	 
H 	 -101.598 	 49.1419 	 -96.5005 	 
H 	 -107.048 	 48.142 	 -97.716 	 
H 	 -100.441 	 44.3709 	 -100.455 	 
