34

S 	 5.73839 	 -16.7793 	 -113.276 	 
C 	 4.39797 	 -17.7432 	 -113.853 	 
C 	 4.17459 	 -18.7944 	 -112.986 	 
C 	 5.07665 	 -18.8642 	 -111.914 	 
C 	 6.07014 	 -17.9084 	 -111.97 	 
H 	 5.24455 	 -19.6972 	 -111.279 	 
C 	 3.11529 	 -19.9082 	 -113.156 	 
H 	 3.51582 	 -20.8267 	 -112.634 	 
H 	 2.86264 	 -20.1042 	 -114.156 	 
C 	 1.70055 	 -19.4754 	 -112.64 	 
H 	 1.73486 	 -19.0528 	 -111.646 	 
H 	 1.36292 	 -18.5924 	 -113.171 	 
C 	 0.621818 	 -20.5818 	 -112.651 	 
H 	 0.303355 	 -20.8221 	 -113.577 	 
H 	 0.924421 	 -21.4533 	 -112.077 	 
H 	 -0.282719 	 -20.2171 	 -112.1 	 
S 	 8.84196 	 -17.9944 	 -111.708 	 
C 	 9.4185 	 -17.9747 	 -110.084 	 
C 	 8.54399 	 -17.3551 	 -109.228 	 
C 	 7.24142 	 -17.2115 	 -109.834 	 
C 	 7.22052 	 -17.6546 	 -111.114 	 
H 	 8.79364 	 -17.1765 	 -108.195 	 
C 	 6.15137 	 -16.4687 	 -109.064 	 
H 	 5.16679 	 -16.9221 	 -109.18 	 
H 	 6.0171 	 -15.471 	 -109.47 	 
C 	 6.28204 	 -16.2886 	 -107.512 	 
H 	 5.40618 	 -15.7917 	 -107.153 	 
H 	 7.02573 	 -15.6187 	 -107.253 	 
C 	 6.40672 	 -17.6785 	 -106.795 	 
H 	 6.55808 	 -17.5586 	 -105.737 	 
H 	 7.20821 	 -18.2941 	 -107.095 	 
H 	 5.53016 	 -18.3377 	 -106.916 	 
H 	 3.88107 	 -17.3998 	 -114.771 	 
H 	 10.4112 	 -18.0746 	 -109.832 	 
