34

S 	 -145.62 	 3.47129 	 14.7012 	 
C 	 -144.416 	 2.23675 	 14.6005 	 
C 	 -143.19 	 2.70796 	 14.0994 	 
C 	 -143.225 	 4.15126 	 13.9578 	 
C 	 -144.439 	 4.7289 	 14.2175 	 
H 	 -142.473 	 4.77436 	 13.5175 	 
C 	 -141.97 	 1.82578 	 13.9441 	 
H 	 -142.256 	 1.0338 	 13.3151 	 
H 	 -141.688 	 1.32477 	 14.9125 	 
C 	 -140.748 	 2.50482 	 13.3297 	 
H 	 -140.033 	 1.77449 	 12.9704 	 
H 	 -141.076 	 3.08329 	 12.4521 	 
C 	 -139.814 	 3.29743 	 14.2323 	 
H 	 -138.976 	 3.71279 	 13.7286 	 
H 	 -140.151 	 4.08524 	 14.7843 	 
H 	 -139.412 	 2.68315 	 14.9694 	 
S 	 -145.947 	 6.82833 	 15.2547 	 
C 	 -145.493 	 8.42391 	 14.5134 	 
C 	 -144.78 	 8.31451 	 13.3546 	 
C 	 -144.527 	 6.91958 	 13.0256 	 
C 	 -144.909 	 6.06474 	 14.0236 	 
H 	 -144.467 	 9.16563 	 12.7917 	 
C 	 -143.721 	 6.57407 	 11.8474 	 
H 	 -143.56 	 5.47085 	 11.8068 	 
H 	 -142.733 	 7.00929 	 11.9321 	 
C 	 -144.257 	 7.06339 	 10.5269 	 
H 	 -144.565 	 8.09349 	 10.5507 	 
H 	 -145.17 	 6.49217 	 10.4443 	 
C 	 -143.381 	 6.6873 	 9.28896 	 
H 	 -143.272 	 5.58967 	 9.21489 	 
H 	 -142.436 	 7.19869 	 9.46042 	 
H 	 -143.953 	 7.0191 	 8.37223 	 
H 	 -144.505 	 1.16555 	 14.9209 	 
H 	 -145.797 	 9.27697 	 15.0618 	 
