34

S 	 -103.065 	 1.53985 	 -114.785 	 
C 	 -103.967 	 2.38433 	 -116.081 	 
C 	 -105.047 	 3.03693 	 -115.578 	 
C 	 -105.165 	 2.88326 	 -114.148 	 
C 	 -104.22 	 2.05922 	 -113.579 	 
H 	 -105.96 	 3.31029 	 -113.601 	 
C 	 -105.926 	 3.82908 	 -116.415 	 
H 	 -105.54 	 3.79229 	 -117.428 	 
H 	 -105.855 	 4.88767 	 -116.002 	 
C 	 -107.395 	 3.40635 	 -116.473 	 
H 	 -107.475 	 2.3933 	 -116.809 	 
H 	 -107.715 	 3.24234 	 -115.44 	 
C 	 -108.447 	 4.32477 	 -117.208 	 
H 	 -108.025 	 5.31919 	 -117.198 	 
H 	 -108.412 	 3.97468 	 -118.261 	 
H 	 -109.461 	 4.24645 	 -116.707 	 
S 	 -105.361 	 2.4693 	 -111.033 	 
C 	 -104.704 	 1.56482 	 -109.65 	 
C 	 -103.579 	 0.908265 	 -110.016 	 
C 	 -103.267 	 0.933422 	 -111.429 	 
C 	 -104.127 	 1.74918 	 -112.14 	 
H 	 -103.123 	 0.347678 	 -109.225 	 
C 	 -102.129 	 0.17923 	 -111.827 	 
H 	 -102.202 	 -0.125711 	 -112.896 	 
H 	 -102.22 	 -0.752538 	 -111.35 	 
C 	 -100.814 	 0.916815 	 -111.582 	 
H 	 -100.682 	 1.20225 	 -110.578 	 
H 	 -100.837 	 1.91682 	 -112.046 	 
C 	 -99.5197 	 0.229636 	 -112.049 	 
H 	 -99.2851 	 -0.629145 	 -111.402 	 
H 	 -98.579 	 0.839264 	 -111.898 	 
H 	 -99.3987 	 -0.207257 	 -113.079 	 
H 	 -103.848 	 2.289 	 -117.115 	 
H 	 -104.971 	 1.65058 	 -108.636 	 
