34

S 	 -85.3173 	 -44.241 	 -83.8011 	 
C 	 -87.0189 	 -43.8423 	 -83.8189 	 
C 	 -87.7909 	 -44.8491 	 -83.2542 	 
C 	 -87.0246 	 -45.9631 	 -82.8488 	 
C 	 -85.6899 	 -45.8527 	 -83.1529 	 
H 	 -87.4686 	 -46.8179 	 -82.4567 	 
C 	 -89.304 	 -44.8627 	 -83.1271 	 
H 	 -89.7376 	 -45.638 	 -83.8287 	 
H 	 -89.6579 	 -43.9189 	 -83.5099 	 
C 	 -89.8687 	 -45.2202 	 -81.7291 	 
H 	 -89.8799 	 -46.3011 	 -81.8129 	 
H 	 -89.3629 	 -44.9164 	 -80.8623 	 
C 	 -91.3134 	 -44.7165 	 -81.6585 	 
H 	 -91.1931 	 -43.6271 	 -81.5141 	 
H 	 -91.9285 	 -44.9332 	 -82.5637 	 
H 	 -91.8447 	 -45.192 	 -80.8657 	 
S 	 -83.537 	 -47.1211 	 -84.2311 	 
C 	 -82.5963 	 -48.1917 	 -83.3674 	 
C 	 -83.2681 	 -48.5418 	 -82.2321 	 
C 	 -84.4272 	 -47.729 	 -81.9493 	 
C 	 -84.6311 	 -46.8323 	 -82.934 	 
H 	 -82.8895 	 -49.2626 	 -81.4516 	 
C 	 -85.2357 	 -47.7275 	 -80.6668 	 
H 	 -85.5871 	 -48.7479 	 -80.6072 	 
H 	 -86.1726 	 -47.0908 	 -80.728 	 
C 	 -84.403 	 -47.5033 	 -79.4004 	 
H 	 -83.9064 	 -46.5025 	 -79.4441 	 
H 	 -83.6508 	 -48.2813 	 -79.2339 	 
C 	 -85.4139 	 -47.5049 	 -78.2137 	 
H 	 -86.3333 	 -46.8322 	 -78.4505 	 
H 	 -85.0212 	 -47.1818 	 -77.2617 	 
H 	 -85.7699 	 -48.485 	 -77.8814 	 
H 	 -87.3524 	 -42.9881 	 -84.2803 	 
H 	 -81.7242 	 -48.6653 	 -83.716 	 
