34

S 	 -61.6418 	 14.2693 	 -110.889 	 
C 	 -61.8381 	 12.8317 	 -110.05 	 
C 	 -62.0377 	 13.0168 	 -108.706 	 
C 	 -62.3157 	 14.3898 	 -108.415 	 
C 	 -62.057 	 15.1877 	 -109.516 	 
H 	 -62.5559 	 14.8219 	 -107.427 	 
C 	 -62.1757 	 11.8998 	 -107.633 	 
H 	 -62.7875 	 11.1115 	 -108.003 	 
H 	 -62.7552 	 12.3066 	 -106.777 	 
C 	 -60.85 	 11.3397 	 -107.203 	 
H 	 -60.3664 	 10.9269 	 -108.092 	 
H 	 -60.2867 	 12.2094 	 -106.833 	 
C 	 -61.0023 	 10.1976 	 -106.22 	 
H 	 -59.9401 	 9.78211 	 -106 	 
H 	 -61.4781 	 10.4694 	 -105.304 	 
H 	 -61.6601 	 9.41331 	 -106.554 	 
S 	 -63.2909 	 17.6569 	 -110.023 	 
C 	 -62.3119 	 19.1098 	 -110.054 	 
C 	 -61.0788 	 18.8218 	 -109.548 	 
C 	 -60.8134 	 17.4698 	 -109.356 	 
C 	 -61.9083 	 16.6669 	 -109.582 	 
H 	 -60.3662 	 19.704 	 -109.45 	 
C 	 -59.5627 	 16.8559 	 -108.924 	 
H 	 -58.7583 	 17.1586 	 -109.638 	 
H 	 -59.5179 	 15.8513 	 -109.091 	 
C 	 -58.9431 	 17.422 	 -107.582 	 
H 	 -59.4408 	 18.2726 	 -107.195 	 
H 	 -57.8571 	 17.6585 	 -107.676 	 
C 	 -59.0618 	 16.3575 	 -106.457 	 
H 	 -60.1538 	 16.1251 	 -106.338 	 
H 	 -58.5996 	 16.8117 	 -105.573 	 
H 	 -58.5035 	 15.4404 	 -106.655 	 
H 	 -61.566 	 11.9885 	 -110.569 	 
H 	 -62.6136 	 20.1232 	 -110.374 	 
