34

S 	 -57.0249 	 12.3684 	 -92.9341 	 
C 	 -55.3435 	 12.3936 	 -93.3448 	 
C 	 -54.6921 	 13.6063 	 -93.11 	 
C 	 -55.5893 	 14.549 	 -92.4649 	 
C 	 -56.8279 	 14.0085 	 -92.2268 	 
H 	 -55.3208 	 15.5446 	 -92.1682 	 
C 	 -53.3571 	 14.0456 	 -93.6413 	 
H 	 -53.6272 	 14.3868 	 -94.612 	 
H 	 -52.6839 	 13.1715 	 -93.7781 	 
C 	 -52.5687 	 15.1302 	 -92.8482 	 
H 	 -53.2098 	 15.9823 	 -92.6537 	 
H 	 -52.3961 	 14.7445 	 -91.8698 	 
C 	 -51.2272 	 15.3701 	 -93.4939 	 
H 	 -51.3112 	 16.1617 	 -94.22 	 
H 	 -50.4256 	 15.6118 	 -92.7861 	 
H 	 -50.7536 	 14.5006 	 -94.037 	 
S 	 -59.1866 	 13.5717 	 -90.762 	 
C 	 -60.1191 	 14.8956 	 -90.1538 	 
C 	 -59.45 	 16.0543 	 -90.4287 	 
C 	 -58.1769 	 15.9147 	 -90.9826 	 
C 	 -57.8973 	 14.6328 	 -91.4037 	 
H 	 -59.8962 	 16.9928 	 -90.2126 	 
C 	 -57.4099 	 17.2298 	 -91.2244 	 
H 	 -58.0667 	 18.1113 	 -91.4016 	 
H 	 -56.8575 	 17.1463 	 -92.1105 	 
C 	 -56.304 	 17.4933 	 -90.1846 	 
H 	 -55.5532 	 16.6473 	 -90.3322 	 
H 	 -56.5974 	 17.5101 	 -89.1007 	 
C 	 -55.46 	 18.7694 	 -90.4698 	 
H 	 -54.7731 	 18.5921 	 -91.3036 	 
H 	 -54.8379 	 18.9911 	 -89.5552 	 
H 	 -56.0215 	 19.6179 	 -90.7173 	 
H 	 -54.9181 	 11.6386 	 -93.9134 	 
H 	 -61.1094 	 14.916 	 -89.8344 	 
