34

S 	 -32.0171 	 -36.1718 	 -90.9632 	 
C 	 -32.1315 	 -36.1121 	 -89.227 	 
C 	 -31.8607 	 -37.3866 	 -88.7555 	 
C 	 -31.7287 	 -38.4072 	 -89.7433 	 
C 	 -31.7591 	 -37.8962 	 -91.0118 	 
H 	 -31.4576 	 -39.4765 	 -89.6279 	 
C 	 -31.5638 	 -37.7396 	 -87.3495 	 
H 	 -30.9412 	 -38.6836 	 -87.359 	 
H 	 -32.4861 	 -37.8079 	 -86.8242 	 
C 	 -30.7199 	 -36.7034 	 -86.4975 	 
H 	 -31.4479 	 -35.9433 	 -86.1779 	 
H 	 -30.3339 	 -37.2711 	 -85.642 	 
C 	 -29.4896 	 -36.1394 	 -87.2048 	 
H 	 -28.8107 	 -36.8668 	 -87.6744 	 
H 	 -29.8651 	 -35.5312 	 -88.0844 	 
H 	 -28.9528 	 -35.4775 	 -86.5622 	 
S 	 -30.1418 	 -38.8832 	 -92.999 	 
C 	 -30.9012 	 -39.6827 	 -94.3944 	 
C 	 -32.27 	 -39.8561 	 -94.1221 	 
C 	 -32.7341 	 -39.2484 	 -92.9291 	 
C 	 -31.7232 	 -38.58 	 -92.2788 	 
H 	 -32.9161 	 -40.3577 	 -94.8133 	 
C 	 -34.1481 	 -39.2569 	 -92.4611 	 
H 	 -34.2392 	 -38.4765 	 -91.7227 	 
H 	 -34.3332 	 -40.1726 	 -91.9444 	 
C 	 -35.1751 	 -39.0319 	 -93.6565 	 
H 	 -35.2529 	 -39.9612 	 -94.2119 	 
H 	 -34.8008 	 -38.3195 	 -94.4004 	 
C 	 -36.5669 	 -38.6726 	 -93.3073 	 
H 	 -37.1337 	 -39.4603 	 -92.71 	 
H 	 -37.1476 	 -38.3285 	 -94.1986 	 
H 	 -36.6247 	 -37.7541 	 -92.7791 	 
H 	 -32.0281 	 -35.2022 	 -88.5849 	 
H 	 -30.3438 	 -40.2245 	 -95.1428 	 
