34

S 	 -63.9845 	 17.7905 	 -115.858 	 
C 	 -62.5698 	 16.7782 	 -115.928 	 
C 	 -62.7553 	 15.6928 	 -116.763 	 
C 	 -64.1753 	 15.5345 	 -117.079 	 
C 	 -64.9755 	 16.5897 	 -116.659 	 
H 	 -64.6406 	 14.6922 	 -117.562 	 
C 	 -61.6434 	 14.7066 	 -117.123 	 
H 	 -61.7924 	 13.8106 	 -116.51 	 
H 	 -60.7202 	 15.105 	 -116.822 	 
C 	 -61.7534 	 14.2807 	 -118.624 	 
H 	 -62.7257 	 13.7489 	 -118.876 	 
H 	 -61.7861 	 15.2264 	 -119.232 	 
C 	 -60.6865 	 13.3054 	 -119.035 	 
H 	 -60.9012 	 12.7342 	 -119.88 	 
H 	 -59.7759 	 13.7663 	 -119.226 	 
H 	 -60.4744 	 12.6628 	 -118.211 	 
S 	 -66.8369 	 18.0908 	 -118.013 	 
C 	 -68.4949 	 17.5997 	 -117.954 	 
C 	 -68.7475 	 16.6333 	 -117.006 	 
C 	 -67.5202 	 16.2673 	 -116.332 	 
C 	 -66.3738 	 16.8279 	 -116.894 	 
H 	 -69.7116 	 16.3121 	 -116.747 	 
C 	 -67.5504 	 15.1278 	 -115.291 	 
H 	 -68.4298 	 15.2671 	 -114.56 	 
H 	 -66.6745 	 15.2346 	 -114.615 	 
C 	 -67.7424 	 13.773 	 -115.905 	 
H 	 -66.895 	 13.5846 	 -116.557 	 
H 	 -68.6542 	 13.724 	 -116.476 	 
C 	 -67.8319 	 12.7603 	 -114.743 	 
H 	 -68.6982 	 12.9652 	 -114.155 	 
H 	 -66.9493 	 12.7743 	 -114.067 	 
H 	 -67.8596 	 11.7233 	 -115.113 	 
H 	 -61.5401 	 17.1131 	 -115.749 	 
H 	 -69.3352 	 18.1128 	 -118.458 	 
