34

S 	 -54.1357 	 -51.155 	 -86.525 	 
C 	 -55.6378 	 -50.8345 	 -87.4782 	 
C 	 -55.9564 	 -49.4767 	 -87.4653 	 
C 	 -55.0163 	 -48.7511 	 -86.7422 	 
C 	 -54.008 	 -49.4633 	 -86.079 	 
H 	 -55.0199 	 -47.7079 	 -86.7733 	 
C 	 -57.1698 	 -48.9102 	 -88.1585 	 
H 	 -57.9816 	 -49.6872 	 -88.2313 	 
H 	 -56.8846 	 -48.7569 	 -89.1855 	 
C 	 -57.6443 	 -47.5382 	 -87.576 	 
H 	 -56.8042 	 -46.9106 	 -87.3785 	 
H 	 -58.2122 	 -46.9618 	 -88.1644 	 
C 	 -58.4405 	 -47.6687 	 -86.2581 	 
H 	 -57.8257 	 -47.8792 	 -85.4054 	 
H 	 -59.0417 	 -46.7507 	 -86.1507 	 
H 	 -59.1955 	 -48.4527 	 -86.3479 	 
S 	 -51.2702 	 -49.2543 	 -85.5753 	 
C 	 -50.7181 	 -48.7074 	 -84.035 	 
C 	 -51.7566 	 -48.0052 	 -83.4407 	 
C 	 -53.0135 	 -48.2666 	 -84.0651 	 
C 	 -52.9141 	 -48.9937 	 -85.2266 	 
H 	 -51.6659 	 -47.3651 	 -82.6521 	 
C 	 -54.2808 	 -47.762 	 -83.481 	 
H 	 -55.2142 	 -48.069 	 -83.9432 	 
H 	 -54.1919 	 -46.7282 	 -83.6726 	 
C 	 -54.5222 	 -47.9514 	 -81.9744 	 
H 	 -55.4783 	 -47.4545 	 -81.7262 	 
H 	 -53.8601 	 -47.4251 	 -81.3462 	 
C 	 -54.474 	 -49.3893 	 -81.5122 	 
H 	 -54.9984 	 -49.9736 	 -82.2842 	 
H 	 -54.9047 	 -49.6888 	 -80.5751 	 
H 	 -53.4461 	 -49.7535 	 -81.5261 	 
H 	 -56.0567 	 -51.5625 	 -88.082 	 
H 	 -49.7209 	 -48.602 	 -83.6403 	 
