34

S 	 38.1405 	 -22.3163 	 -115.078 	 
C 	 39.3822 	 -22.6463 	 -116.26 	 
C 	 40.6669 	 -22.6146 	 -115.622 	 
C 	 40.5979 	 -22.7171 	 -114.214 	 
C 	 39.2828 	 -22.5418 	 -113.791 	 
H 	 41.4638 	 -22.7443 	 -113.523 	 
C 	 41.9188 	 -22.9057 	 -116.442 	 
H 	 42.7992 	 -22.602 	 -115.833 	 
H 	 41.9258 	 -22.1184 	 -117.243 	 
C 	 42.1034 	 -24.3229 	 -117.037 	 
H 	 41.2367 	 -24.3966 	 -117.733 	 
H 	 42.9364 	 -24.4053 	 -117.687 	 
C 	 42.1857 	 -25.4278 	 -115.965 	 
H 	 41.3659 	 -25.4101 	 -115.284 	 
H 	 42.1052 	 -26.4453 	 -116.393 	 
H 	 43.1286 	 -25.501 	 -115.501 	 
S 	 37.9392 	 -23.7838 	 -111.844 	 
C 	 37.6361 	 -22.9853 	 -110.334 	 
C 	 38.1872 	 -21.7167 	 -110.265 	 
C 	 38.9778 	 -21.4383 	 -111.434 	 
C 	 38.7617 	 -22.3785 	 -112.471 	 
H 	 38.1256 	 -21.0706 	 -109.43 	 
C 	 39.8283 	 -20.1752 	 -111.534 	 
H 	 39.3026 	 -19.36 	 -110.982 	 
H 	 39.8819 	 -19.9035 	 -112.663 	 
C 	 41.18 	 -20.0599 	 -110.859 	 
H 	 40.9969 	 -20.0593 	 -109.791 	 
H 	 41.6904 	 -19.1246 	 -111.082 	 
C 	 42.1801 	 -21.1832 	 -111.199 	 
H 	 42.2334 	 -21.0889 	 -112.315 	 
H 	 41.9589 	 -22.1903 	 -110.74 	 
H 	 43.1692 	 -20.8554 	 -110.763 	 
H 	 39.1915 	 -22.767 	 -117.333 	 
H 	 37.2994 	 -23.39 	 -109.42 	 
