34

S 	 -94.6254 	 48.8302 	 -96.7796 	 
C 	 -93.4028 	 49.1686 	 -95.5246 	 
C 	 -92.8654 	 50.4626 	 -95.6761 	 
C 	 -93.4232 	 51.1568 	 -96.7841 	 
C 	 -94.2721 	 50.3785 	 -97.5784 	 
H 	 -93.2244 	 52.1243 	 -97.0771 	 
C 	 -91.8071 	 51.0747 	 -94.7551 	 
H 	 -91.0911 	 51.4036 	 -95.5529 	 
H 	 -91.2453 	 50.2854 	 -94.1992 	 
C 	 -92.1488 	 52.1597 	 -93.6957 	 
H 	 -92.7154 	 52.9802 	 -94.1115 	 
H 	 -92.9488 	 51.7254 	 -93.0916 	 
C 	 -90.924 	 52.6962 	 -92.9104 	 
H 	 -91.1977 	 53.5694 	 -92.433 	 
H 	 -90.6418 	 52.0066 	 -92.1703 	 
H 	 -90.0597 	 53.0022 	 -93.5268 	 
S 	 -94.2642 	 50.55 	 -100.33 	 
C 	 -95.3479 	 51.707 	 -101.085 	 
C 	 -96.252 	 52.1667 	 -100.131 	 
C 	 -95.8878 	 51.8729 	 -98.77 	 
C 	 -94.937 	 50.9134 	 -98.7199 	 
H 	 -97.0971 	 52.7587 	 -100.501 	 
C 	 -96.676 	 52.3936 	 -97.5783 	 
H 	 -96.4458 	 53.4718 	 -97.5798 	 
H 	 -96.2305 	 52.0538 	 -96.6415 	 
C 	 -98.1677 	 52.0722 	 -97.5952 	 
H 	 -98.2025 	 51.0003 	 -97.3921 	 
H 	 -98.5626 	 52.2697 	 -98.6074 	 
C 	 -99.0801 	 52.9929 	 -96.7259 	 
H 	 -98.9746 	 52.9606 	 -95.6643 	 
H 	 -100.106 	 52.6656 	 -96.8264 	 
H 	 -99.0878 	 54.0209 	 -97.0306 	 
H 	 -93.0723 	 48.5274 	 -94.7176 	 
H 	 -95.4849 	 51.8933 	 -102.139 	 
