34

S 	 -137.025 	 7.87367 	 9.53014 	 
C 	 -136.387 	 6.9718 	 8.12845 	 
C 	 -135.337 	 6.11234 	 8.47512 	 
C 	 -134.927 	 6.26051 	 9.85871 	 
C 	 -135.666 	 7.2085 	 10.4959 	 
H 	 -134.119 	 5.82188 	 10.3406 	 
C 	 -134.617 	 5.1095 	 7.58442 	 
H 	 -134.979 	 5.23982 	 6.53936 	 
H 	 -134.972 	 4.10803 	 7.92152 	 
C 	 -133.093 	 5.34444 	 7.63805 	 
H 	 -132.87 	 6.482 	 7.69749 	 
H 	 -132.888 	 4.82979 	 8.56609 	 
C 	 -132.246 	 4.79634 	 6.51858 	 
H 	 -132.534 	 5.18832 	 5.4926 	 
H 	 -131.17 	 4.97947 	 6.73366 	 
H 	 -132.424 	 3.70473 	 6.45161 	 
S 	 -136.178 	 6.29854 	 13.0907 	 
C 	 -135.665 	 7.22724 	 14.4339 	 
C 	 -135 	 8.33774 	 14.0366 	 
C 	 -134.892 	 8.52091 	 12.6341 	 
C 	 -135.51 	 7.45733 	 11.9187 	 
H 	 -134.505 	 8.95737 	 14.7915 	 
C 	 -134.222 	 9.61212 	 11.9719 	 
H 	 -134.26 	 9.61826 	 10.8668 	 
H 	 -133.16 	 9.556 	 12.1972 	 
C 	 -134.638 	 10.9801 	 12.5306 	 
H 	 -134.024 	 11.7917 	 12.1632 	 
H 	 -134.278 	 11.0321 	 13.5845 	 
C 	 -136.107 	 11.3367 	 12.4204 	 
H 	 -136.288 	 12.2857 	 12.9317 	 
H 	 -136.664 	 10.5282 	 13.0098 	 
H 	 -136.686 	 11.2254 	 11.5236 	 
H 	 -136.915 	 6.94873 	 7.22385 	 
H 	 -135.691 	 6.92796 	 15.4793 	 
