34

S 	 20.4741 	 -20.8539 	 -124.029 	 
C 	 21.7675 	 -20.6929 	 -125.168 	 
C 	 22.7552 	 -19.8244 	 -124.754 	 
C 	 22.501 	 -19.4543 	 -123.398 	 
C 	 21.431 	 -20.0257 	 -122.845 	 
H 	 23.069 	 -18.7227 	 -122.812 	 
C 	 23.9824 	 -19.3704 	 -125.546 	 
H 	 24.8073 	 -19.3074 	 -124.908 	 
H 	 23.7037 	 -18.332 	 -125.688 	 
C 	 24.2493 	 -19.9958 	 -126.906 	 
H 	 24.1447 	 -21.0385 	 -126.807 	 
H 	 23.4844 	 -19.8042 	 -127.608 	 
C 	 25.6205 	 -19.6962 	 -127.466 	 
H 	 25.6405 	 -18.6655 	 -127.789 	 
H 	 26.5101 	 -19.7965 	 -126.903 	 
H 	 25.8489 	 -20.2897 	 -128.363 	 
S 	 20.2372 	 -21.1877 	 -120.608 	 
C 	 19.7514 	 -20.1939 	 -119.358 	 
C 	 20.014 	 -18.8716 	 -119.595 	 
C 	 20.6338 	 -18.5895 	 -120.844 	 
C 	 20.8736 	 -19.8066 	 -121.499 	 
H 	 19.6859 	 -18.168 	 -118.917 	 
C 	 21.0457 	 -17.234 	 -121.345 	 
H 	 20.2354 	 -16.4826 	 -121.357 	 
H 	 21.3677 	 -17.2917 	 -122.418 	 
C 	 22.066 	 -16.5341 	 -120.417 	 
H 	 22.8952 	 -17.2375 	 -120.183 	 
H 	 21.707 	 -16.1761 	 -119.444 	 
C 	 22.7706 	 -15.3713 	 -121.118 	 
H 	 23.6561 	 -14.9857 	 -120.472 	 
H 	 22.2531 	 -14.404 	 -121.214 	 
H 	 23.2265 	 -15.5348 	 -122 	 
H 	 21.7452 	 -21.0946 	 -126.183 	 
H 	 19.219 	 -20.498 	 -118.447 	 
