34

S 	 -47.2639 	 19.7682 	 23.4247 	 
C 	 -47.3335 	 18.598 	 22.0838 	 
C 	 -47.0127 	 17.3217 	 22.5708 	 
C 	 -46.5678 	 17.439 	 23.9007 	 
C 	 -46.5016 	 18.6797 	 24.5124 	 
H 	 -46.2613 	 16.5834 	 24.491 	 
C 	 -46.9872 	 16.063 	 21.7492 	 
H 	 -47.3567 	 16.2633 	 20.8195 	 
H 	 -47.8337 	 15.3784 	 22.0224 	 
C 	 -45.7333 	 15.2327 	 21.7493 	 
H 	 -45.6565 	 15.0057 	 22.8337 	 
H 	 -46.0213 	 14.2973 	 21.346 	 
C 	 -44.5184 	 15.9467 	 21.2216 	 
H 	 -44.6122 	 16.1963 	 20.1621 	 
H 	 -44.2757 	 16.855 	 21.8157 	 
H 	 -43.6554 	 15.3068 	 21.3023 	 
S 	 -46.9944 	 20.1997 	 26.8612 	 
C 	 -45.9214 	 20.0705 	 28.2222 	 
C 	 -44.7157 	 19.4268 	 27.7711 	 
C 	 -44.8268 	 18.8742 	 26.4388 	 
C 	 -46.012 	 19.137 	 25.8051 	 
H 	 -43.9082 	 19.3243 	 28.505 	 
C 	 -43.6153 	 18.1006 	 25.7759 	 
H 	 -43.1251 	 18.7833 	 25.0268 	 
H 	 -44.0514 	 17.2898 	 25.1586 	 
C 	 -42.5017 	 17.6608 	 26.721 	 
H 	 -42.1309 	 18.3878 	 27.3763 	 
H 	 -41.5901 	 17.4951 	 26.083 	 
C 	 -42.8085 	 16.3047 	 27.3637 	 
H 	 -41.9862 	 15.9838 	 28.021 	 
H 	 -42.7107 	 15.5721 	 26.534 	 
H 	 -43.8225 	 16.0835 	 27.7232 	 
H 	 -47.7697 	 18.6883 	 21.1604 	 
H 	 -46.0922 	 20.5076 	 29.2318 	 
