34

S 	 -63.3949 	 9.42667 	 23.6987 	 
C 	 -62.1841 	 10.7004 	 23.5144 	 
C 	 -61.0112 	 10.2228 	 22.9071 	 
C 	 -61.041 	 8.81795 	 22.7435 	 
C 	 -62.2765 	 8.23343 	 22.9518 	 
H 	 -60.2325 	 8.21143 	 22.463 	 
C 	 -59.7564 	 10.9332 	 22.5961 	 
H 	 -58.9775 	 10.3926 	 22.1034 	 
H 	 -59.3654 	 11.0693 	 23.5894 	 
C 	 -59.9112 	 12.2524 	 21.8077 	 
H 	 -59.1043 	 12.4375 	 21.1087 	 
H 	 -60.8936 	 12.3218 	 21.2766 	 
C 	 -59.8822 	 13.4032 	 22.7497 	 
H 	 -60.0819 	 14.3381 	 22.1598 	 
H 	 -60.7664 	 13.4129 	 23.3181 	 
H 	 -58.9415 	 13.5865 	 23.2853 	 
S 	 -63.5908 	 6.07727 	 24.1216 	 
C 	 -63.4997 	 4.50262 	 23.4093 	 
C 	 -62.8266 	 4.51982 	 22.1938 	 
C 	 -62.2848 	 5.87911 	 21.8556 	 
C 	 -62.6062 	 6.8149 	 22.8129 	 
H 	 -62.8965 	 3.59571 	 21.6394 	 
C 	 -61.5893 	 6.14877 	 20.5615 	 
H 	 -61.2223 	 5.13118 	 20.2751 	 
H 	 -60.7066 	 6.64791 	 20.7103 	 
C 	 -62.539 	 6.56629 	 19.4175 	 
H 	 -63.0355 	 7.49582 	 19.6488 	 
H 	 -63.4045 	 5.87864 	 19.3438 	 
C 	 -61.8613 	 6.83955 	 18.1052 	 
H 	 -60.9974 	 7.49654 	 18.1017 	 
H 	 -62.5834 	 7.2742 	 17.4575 	 
H 	 -61.5038 	 5.83889 	 17.7641 	 
H 	 -62.2707 	 11.7586 	 23.9553 	 
H 	 -63.9577 	 3.62399 	 23.7979 	 
