34

S 	 -109.741 	 40.7972 	 -11.6346 	 
C 	 -110.06 	 42.4835 	 -11.7884 	 
C 	 -110.476 	 43.0429 	 -10.6364 	 
C 	 -110.376 	 42.1081 	 -9.55911 	 
C 	 -109.888 	 40.8955 	 -9.92389 	 
H 	 -110.639 	 42.1937 	 -8.51506 	 
C 	 -110.879 	 44.4736 	 -10.4055 	 
H 	 -110.213 	 45.0025 	 -11.1098 	 
H 	 -110.725 	 44.7581 	 -9.37706 	 
C 	 -112.406 	 44.8835 	 -10.698 	 
H 	 -112.603 	 45.8203 	 -10.2349 	 
H 	 -112.593 	 45.103 	 -11.7464 	 
C 	 -113.309 	 43.7563 	 -10.1366 	 
H 	 -112.959 	 43.4272 	 -9.1527 	 
H 	 -114.326 	 44.0718 	 -10.2534 	 
H 	 -113.272 	 42.816 	 -10.7636 	 
S 	 -110.278 	 38.1974 	 -9.83242 	 
C 	 -110.216 	 37.4196 	 -8.20413 	 
C 	 -109.627 	 38.218 	 -7.28951 	 
C 	 -109.465 	 39.5736 	 -7.72758 	 
C 	 -109.935 	 39.7835 	 -9.04805 	 
H 	 -109.281 	 37.7455 	 -6.39761 	 
C 	 -108.736 	 40.5864 	 -6.8742 	 
H 	 -108.698 	 41.5314 	 -7.45365 	 
H 	 -107.744 	 40.2271 	 -6.88321 	 
C 	 -109.302 	 40.7914 	 -5.4674 	 
H 	 -108.683 	 41.5189 	 -4.95988 	 
H 	 -109.387 	 39.7962 	 -4.90264 	 
C 	 -110.678 	 41.3983 	 -5.56604 	 
H 	 -111.304 	 41.2337 	 -4.70092 	 
H 	 -111.359 	 40.9924 	 -6.29286 	 
H 	 -110.537 	 42.5172 	 -5.68942 	 
H 	 -109.771 	 43.0634 	 -12.6744 	 
H 	 -110.465 	 36.4447 	 -8.03225 	 
