34

S 	 -80.6583 	 -2.11784 	 -56.7831 	 
C 	 -79.2961 	 -1.11104 	 -56.8988 	 
C 	 -78.4311 	 -1.59926 	 -57.8571 	 
C 	 -78.966 	 -2.63519 	 -58.6388 	 
C 	 -80.2848 	 -2.89382 	 -58.3105 	 
H 	 -78.6622 	 -3.09491 	 -59.5791 	 
C 	 -76.9523 	 -1.05376 	 -58.059 	 
H 	 -76.6776 	 -0.678989 	 -57.0517 	 
H 	 -76.9014 	 -0.192804 	 -58.689 	 
C 	 -75.8581 	 -2.06838 	 -58.2542 	 
H 	 -75.6566 	 -2.58697 	 -57.331 	 
H 	 -76.1383 	 -2.86501 	 -58.9175 	 
C 	 -74.503 	 -1.39586 	 -58.6313 	 
H 	 -73.6942 	 -2.11021 	 -58.6248 	 
H 	 -74.5147 	 -0.87434 	 -59.6072 	 
H 	 -74.2057 	 -0.666406 	 -57.882 	 
S 	 -82.22 	 -4.84828 	 -57.955 	 
C 	 -82.9672 	 -5.54511 	 -59.3484 	 
C 	 -82.4681 	 -4.99362 	 -60.5136 	 
C 	 -81.4892 	 -4.00952 	 -60.2426 	 
C 	 -81.2516 	 -3.76106 	 -58.9211 	 
H 	 -82.9209 	 -5.39402 	 -61.4528 	 
C 	 -80.7113 	 -3.43902 	 -61.3387 	 
H 	 -79.7076 	 -3.89243 	 -61.4118 	 
H 	 -80.5554 	 -2.45945 	 -60.9745 	 
C 	 -81.1594 	 -3.56592 	 -62.8016 	 
H 	 -81.2566 	 -4.6058 	 -63.1232 	 
H 	 -80.1969 	 -3.31394 	 -63.3819 	 
C 	 -82.3003 	 -2.65446 	 -63.2557 	 
H 	 -82.2151 	 -1.61573 	 -62.9832 	 
H 	 -83.1939 	 -3.0271 	 -62.8841 	 
H 	 -82.2744 	 -2.78011 	 -64.3615 	 
H 	 -78.8912 	 -0.319786 	 -56.2916 	 
H 	 -83.8877 	 -6.06456 	 -59.2849 	 
