34

S 	 29.4476 	 -4.89988 	 -119.759 	 
C 	 28.1147 	 -5.69981 	 -120.379 	 
C 	 28.4241 	 -6.92951 	 -120.974 	 
C 	 29.8132 	 -7.19187 	 -120.959 	 
C 	 30.5087 	 -6.07499 	 -120.514 	 
H 	 30.3536 	 -8.02551 	 -121.403 	 
C 	 27.4462 	 -7.88396 	 -121.647 	 
H 	 26.5484 	 -8.06834 	 -121.034 	 
H 	 27.9607 	 -8.7971 	 -121.773 	 
C 	 26.9825 	 -7.35656 	 -123.007 	 
H 	 26.873 	 -6.29351 	 -122.932 	 
H 	 27.6572 	 -7.49811 	 -123.842 	 
C 	 25.6247 	 -7.80131 	 -123.522 	 
H 	 25.6194 	 -8.87311 	 -123.46 	 
H 	 24.8422 	 -7.24543 	 -122.988 	 
H 	 25.514 	 -7.46817 	 -124.512 	 
S 	 32.9535 	 -5.50839 	 -121.866 	 
C 	 34.3103 	 -5.38492 	 -120.711 	 
C 	 34.0352 	 -6.05881 	 -119.48 	 
C 	 32.6865 	 -6.37775 	 -119.302 	 
C 	 31.9552 	 -5.9433 	 -120.427 	 
H 	 34.8301 	 -6.2026 	 -118.8 	 
C 	 32.1495 	 -7.13852 	 -118.072 	 
H 	 32.9681 	 -7.53266 	 -117.421 	 
H 	 31.6558 	 -8.04806 	 -118.535 	 
C 	 31.1298 	 -6.41179 	 -117.199 	 
H 	 30.1387 	 -6.3428 	 -117.704 	 
H 	 31.5011 	 -5.40568 	 -117.071 	 
C 	 30.8783 	 -7.0282 	 -115.886 	 
H 	 30.6357 	 -6.29235 	 -115.094 	 
H 	 31.7851 	 -7.60941 	 -115.551 	 
H 	 30.0268 	 -7.59893 	 -115.874 	 
H 	 27.1745 	 -5.20182 	 -120.478 	 
H 	 35.2708 	 -4.9775 	 -121.006 	 
