34

S 	 -128.884 	 70.9205 	 -43.1439 	 
C 	 -130.131 	 72.036 	 -43.4835 	 
C 	 -129.961 	 72.6043 	 -44.7018 	 
C 	 -128.765 	 72.0843 	 -45.3606 	 
C 	 -128.052 	 71.152 	 -44.653 	 
H 	 -128.367 	 72.4724 	 -46.2801 	 
C 	 -130.951 	 73.5423 	 -45.4139 	 
H 	 -130.44 	 74.1566 	 -46.1607 	 
H 	 -131.21 	 74.2358 	 -44.6096 	 
C 	 -132.078 	 72.7787 	 -46.1947 	 
H 	 -131.526 	 72.1995 	 -46.9718 	 
H 	 -132.472 	 72.1497 	 -45.4943 	 
C 	 -133.133 	 73.7751 	 -46.6972 	 
H 	 -133.681 	 74.2411 	 -45.9145 	 
H 	 -132.65 	 74.6267 	 -47.205 	 
H 	 -133.891 	 73.3586 	 -47.3636 	 
S 	 -125.411 	 70.8406 	 -43.7462 	 
C 	 -124.219 	 70.502 	 -44.9697 	 
C 	 -124.75 	 70.0894 	 -46.1374 	 
C 	 -126.181 	 70.3254 	 -46.1806 	 
C 	 -126.716 	 70.7035 	 -44.961 	 
H 	 -124.126 	 69.6942 	 -46.9041 	 
C 	 -126.838 	 69.9898 	 -47.4947 	 
H 	 -127.784 	 69.4841 	 -47.3075 	 
H 	 -126.141 	 69.3313 	 -47.9357 	 
C 	 -126.823 	 71.0935 	 -48.5459 	 
H 	 -125.851 	 71.5762 	 -48.7542 	 
H 	 -127.331 	 71.9568 	 -48.1957 	 
C 	 -127.397 	 70.6676 	 -49.8892 	 
H 	 -128.47 	 70.2368 	 -49.8115 	 
H 	 -126.823 	 69.8176 	 -50.3005 	 
H 	 -127.525 	 71.4885 	 -50.602 	 
H 	 -130.876 	 72.4742 	 -42.7923 	 
H 	 -123.195 	 70.3964 	 -44.7752 	 
