34

S 	 -104.781 	 35.9086 	 -23.8326 	 
C 	 -103.815 	 34.4114 	 -23.7713 	 
C 	 -104.638 	 33.2657 	 -23.7399 	 
C 	 -106.034 	 33.5811 	 -23.9371 	 
C 	 -106.244 	 34.9581 	 -23.97 	 
H 	 -106.821 	 32.8067 	 -24.0982 	 
C 	 -104.125 	 31.8772 	 -23.5093 	 
H 	 -103.518 	 31.651 	 -24.3873 	 
H 	 -104.931 	 31.1144 	 -23.5327 	 
C 	 -103.269 	 31.5392 	 -22.3153 	 
H 	 -102.732 	 30.6627 	 -22.4708 	 
H 	 -102.549 	 32.3573 	 -22.1226 	 
C 	 -104.094 	 31.261 	 -21.1142 	 
H 	 -103.537 	 30.7984 	 -20.2576 	 
H 	 -104.462 	 32.2084 	 -20.7369 	 
H 	 -104.914 	 30.5487 	 -21.3038 	 
S 	 -107.851 	 36.9782 	 -23.025 	 
C 	 -109.372 	 37.4716 	 -23.7707 	 
C 	 -109.641 	 36.5813 	 -24.7188 	 
C 	 -108.725 	 35.5062 	 -24.9354 	 
C 	 -107.55 	 35.6438 	 -24.1899 	 
H 	 -110.479 	 36.8503 	 -25.2667 	 
C 	 -108.991 	 34.5779 	 -25.9835 	 
H 	 -108.059 	 34.2811 	 -26.4707 	 
H 	 -109.601 	 35.0189 	 -26.8064 	 
C 	 -109.712 	 33.2801 	 -25.574 	 
H 	 -109.05 	 32.7828 	 -24.8019 	 
H 	 -109.816 	 32.6392 	 -26.4198 	 
C 	 -111.197 	 33.3003 	 -24.9634 	 
H 	 -111.929 	 33.7787 	 -25.631 	 
H 	 -111.306 	 33.8591 	 -24.0056 	 
H 	 -111.622 	 32.3356 	 -24.7354 	 
H 	 -102.793 	 34.3462 	 -23.5822 	 
H 	 -109.929 	 38.3348 	 -23.4149 	 
