34

S 	 -40.1769 	 20.5669 	 13.1646 	 
C 	 -41.3565 	 20.3687 	 14.52 	 
C 	 -40.7632 	 20.4276 	 15.7564 	 
C 	 -39.354 	 20.5261 	 15.5891 	 
C 	 -38.8443 	 20.7298 	 14.3207 	 
H 	 -38.601 	 20.7335 	 16.3596 	 
C 	 -41.4869 	 20.3813 	 17.0537 	 
H 	 -41.0121 	 19.5587 	 17.5365 	 
H 	 -42.5601 	 20.1631 	 16.7766 	 
C 	 -41.294 	 21.6426 	 17.823 	 
H 	 -40.2768 	 21.8557 	 18.0731 	 
H 	 -41.6528 	 22.4059 	 17.1331 	 
C 	 -42.0085 	 21.7027 	 19.1731 	 
H 	 -41.8311 	 22.6411 	 19.7767 	 
H 	 -43.1113 	 21.6761 	 19.0632 	 
H 	 -41.6635 	 20.8904 	 19.7859 	 
S 	 -36.6568 	 19.197 	 13.9608 	 
C 	 -35.0499 	 19.978 	 13.8409 	 
C 	 -35.2377 	 21.3554 	 13.7563 	 
C 	 -36.5394 	 21.7869 	 13.949 	 
C 	 -37.4571 	 20.7264 	 13.9046 	 
H 	 -34.415 	 22.0478 	 13.7615 	 
C 	 -36.9232 	 23.2044 	 14.0985 	 
H 	 -36.0784 	 23.6922 	 14.6676 	 
H 	 -37.7387 	 23.3569 	 14.7612 	 
C 	 -37.09 	 24.0496 	 12.782 	 
H 	 -36.2123 	 23.809 	 12.1127 	 
H 	 -36.911 	 25.162 	 12.9159 	 
C 	 -38.5091 	 23.9687 	 12.1146 	 
H 	 -38.8851 	 22.9379 	 11.8035 	 
H 	 -38.4018 	 24.5136 	 11.1234 	 
H 	 -39.1874 	 24.4847 	 12.7545 	 
H 	 -42.4562 	 20.3212 	 14.3285 	 
H 	 -34.1427 	 19.3773 	 14.0183 	 
