34

S 	 -132.939 	 20.623 	 -20.1645 	 
C 	 -133.565 	 19.2929 	 -19.2017 	 
C 	 -134.81 	 18.8296 	 -19.6599 	 
C 	 -135.192 	 19.5864 	 -20.8336 	 
C 	 -134.25 	 20.5196 	 -21.2549 	 
H 	 -136.071 	 19.5066 	 -21.4702 	 
C 	 -135.611 	 17.7434 	 -18.9914 	 
H 	 -135.144 	 17.59 	 -17.9834 	 
H 	 -135.352 	 16.8243 	 -19.5274 	 
C 	 -137.168 	 17.9293 	 -18.8561 	 
H 	 -137.435 	 18.1279 	 -19.9045 	 
H 	 -137.547 	 16.9701 	 -18.4764 	 
C 	 -137.569 	 19.147 	 -17.9489 	 
H 	 -138.613 	 18.9411 	 -17.7602 	 
H 	 -136.94 	 19.2079 	 -17.0529 	 
H 	 -137.473 	 20.129 	 -18.5298 	 
S 	 -134.712 	 22.9038 	 -22.4259 	 
C 	 -134.642 	 23.1241 	 -24.158 	 
C 	 -134.265 	 21.917 	 -24.8022 	 
C 	 -133.961 	 20.889 	 -23.8569 	 
C 	 -134.239 	 21.2506 	 -22.5679 	 
H 	 -134.161 	 21.8065 	 -25.9161 	 
C 	 -133.427 	 19.538 	 -24.223 	 
H 	 -133.258 	 19.0464 	 -23.2688 	 
H 	 -132.508 	 19.7477 	 -24.7767 	 
C 	 -134.435 	 18.6931 	 -25.0547 	 
H 	 -134.545 	 19.0759 	 -26.0478 	 
H 	 -135.435 	 18.617 	 -24.5456 	 
C 	 -133.914 	 17.17 	 -25.0539 	 
H 	 -133.672 	 16.7579 	 -24.116 	 
H 	 -133.118 	 17.0562 	 -25.7321 	 
H 	 -134.695 	 16.5337 	 -25.4965 	 
H 	 -133.063 	 18.9979 	 -18.2769 	 
H 	 -134.949 	 24.0683 	 -24.6632 	 
