34

S 	 -67.9634 	 12.2665 	 -72.1938 	 
C 	 -69.6411 	 12.4596 	 -72.629 	 
C 	 -70.4662 	 11.8244 	 -71.795 	 
C 	 -69.7669 	 11.1006 	 -70.7513 	 
C 	 -68.3965 	 11.1214 	 -70.977 	 
H 	 -70.2148 	 10.4711 	 -70.0012 	 
C 	 -71.9396 	 11.8396 	 -71.8542 	 
H 	 -72.1746 	 12.9115 	 -71.9817 	 
H 	 -72.2869 	 11.5331 	 -70.8518 	 
C 	 -72.6505 	 10.9831 	 -72.9018 	 
H 	 -72.3985 	 9.94222 	 -72.7616 	 
H 	 -73.7579 	 11.0107 	 -72.5942 	 
C 	 -72.4549 	 11.2428 	 -74.4343 	 
H 	 -72.3232 	 10.2422 	 -74.9378 	 
H 	 -73.1737 	 11.8674 	 -74.8917 	 
H 	 -71.4265 	 11.6586 	 -74.6433 	 
S 	 -66.2829 	 11.5196 	 -69.2554 	 
C 	 -65.4594 	 10.1758 	 -68.5431 	 
C 	 -65.8937 	 8.96384 	 -69.1265 	 
C 	 -66.9838 	 9.15303 	 -70.0889 	 
C 	 -67.3585 	 10.489 	 -70.1326 	 
H 	 -65.3895 	 7.98238 	 -68.911 	 
C 	 -67.6549 	 7.97922 	 -70.6801 	 
H 	 -68.6863 	 8.03302 	 -70.3132 	 
H 	 -67.1982 	 7.11011 	 -70.2204 	 
C 	 -67.5477 	 7.71989 	 -72.1943 	 
H 	 -66.4832 	 7.77643 	 -72.5055 	 
H 	 -68.1262 	 8.43808 	 -72.7979 	 
C 	 -68.0697 	 6.36444 	 -72.6592 	 
H 	 -69.1683 	 6.426 	 -72.6464 	 
H 	 -67.7365 	 5.48714 	 -72.0154 	 
H 	 -67.7471 	 6.24007 	 -73.7338 	 
H 	 -70.0202 	 13.0887 	 -73.3626 	 
H 	 -64.7694 	 10.219 	 -67.7213 	 
