34

S 	 -103.848 	 21.6495 	 -112.414 	 
C 	 -103.961 	 20.5005 	 -113.72 	 
C 	 -105.215 	 20.4012 	 -114.218 	 
C 	 -106.104 	 21.261 	 -113.537 	 
C 	 -105.562 	 22.0409 	 -112.586 	 
H 	 -107.118 	 21.3562 	 -113.658 	 
C 	 -105.723 	 19.5226 	 -115.295 	 
H 	 -106.024 	 20.1931 	 -116.13 	 
H 	 -106.675 	 19.115 	 -114.93 	 
C 	 -104.935 	 18.3607 	 -115.844 	 
H 	 -105.319 	 18.0483 	 -116.875 	 
H 	 -103.903 	 18.6405 	 -115.902 	 
C 	 -104.955 	 17.0424 	 -115.022 	 
H 	 -106.007 	 16.6705 	 -115.134 	 
H 	 -104.244 	 16.3214 	 -115.433 	 
H 	 -104.692 	 17.1492 	 -113.944 	 
S 	 -105.68 	 23.1753 	 -110.101 	 
C 	 -106.92 	 24.2137 	 -109.666 	 
C 	 -107.708 	 24.5425 	 -110.716 	 
C 	 -107.435 	 23.7757 	 -111.936 	 
C 	 -106.269 	 22.9993 	 -111.725 	 
H 	 -108.451 	 25.3049 	 -110.625 	 
C 	 -108.185 	 24.019 	 -113.176 	 
H 	 -107.433 	 24.0533 	 -114.062 	 
H 	 -108.596 	 24.994 	 -112.99 	 
C 	 -109.393 	 23.117 	 -113.445 	 
H 	 -110.217 	 23.3969 	 -112.693 	 
H 	 -109.195 	 22.0572 	 -113.241 	 
C 	 -110.013 	 23.3467 	 -114.802 	 
H 	 -109.323 	 23.0462 	 -115.587 	 
H 	 -110.188 	 24.4104 	 -114.936 	 
H 	 -110.968 	 22.7851 	 -114.831 	 
H 	 -103.174 	 19.9551 	 -114.224 	 
H 	 -107.021 	 24.6536 	 -108.663 	 
