34

S 	 -94.3856 	 44.2961 	 -90.5727 	 
C 	 -94.1806 	 43.0215 	 -91.7714 	 
C 	 -95.3987 	 42.4887 	 -92.1765 	 
C 	 -96.5217 	 43.1988 	 -91.5198 	 
C 	 -96.1036 	 44.0179 	 -90.4804 	 
H 	 -97.6148 	 42.9822 	 -91.598 	 
C 	 -95.6637 	 41.2796 	 -93.1603 	 
H 	 -96.4622 	 40.6665 	 -92.8341 	 
H 	 -94.8252 	 40.6691 	 -92.9237 	 
C 	 -95.7382 	 41.5656 	 -94.6402 	 
H 	 -94.7849 	 41.9946 	 -95.0299 	 
H 	 -95.8261 	 40.6622 	 -95.2369 	 
C 	 -96.8796 	 42.4618 	 -95.1551 	 
H 	 -96.7686 	 42.7192 	 -96.2767 	 
H 	 -97.8659 	 41.917 	 -94.9613 	 
H 	 -96.8907 	 43.4185 	 -94.6134 	 
S 	 -96.2719 	 44.6997 	 -87.7753 	 
C 	 -97.7777 	 45.5157 	 -87.2495 	 
C 	 -98.6136 	 45.7622 	 -88.3331 	 
C 	 -98.1961 	 45.2223 	 -89.5492 	 
C 	 -96.8613 	 44.7115 	 -89.4774 	 
H 	 -99.5847 	 46.2534 	 -88.2106 	 
C 	 -99.0645 	 45.3901 	 -90.7986 	 
H 	 -98.4077 	 45.4436 	 -91.6637 	 
H 	 -99.5445 	 46.3595 	 -90.7774 	 
C 	 -100.118 	 44.2079 	 -90.9641 	 
H 	 -100.872 	 44.1598 	 -90.2409 	 
H 	 -99.5603 	 43.2927 	 -90.9002 	 
C 	 -100.738 	 44.109 	 -92.3606 	 
H 	 -101.396 	 44.9141 	 -92.6349 	 
H 	 -101.427 	 43.2409 	 -92.3524 	 
H 	 -99.8634 	 44.0742 	 -93.04 	 
H 	 -93.2536 	 42.6417 	 -92.1686 	 
H 	 -98.1338 	 45.7493 	 -86.2659 	 
