34

S 	 44.1772 	 -21.5248 	 -110.615 	 
C 	 45.2548 	 -22.2822 	 -109.42 	 
C 	 46.2254 	 -23.0021 	 -110.092 	 
C 	 45.979 	 -23.1248 	 -111.504 	 
C 	 44.9107 	 -22.4568 	 -111.953 	 
H 	 46.5929 	 -23.7537 	 -112.18 	 
C 	 47.253 	 -23.7591 	 -109.394 	 
H 	 46.6372 	 -24.448 	 -108.766 	 
H 	 47.8364 	 -23.1825 	 -108.717 	 
C 	 48.1907 	 -24.6242 	 -110.227 	 
H 	 47.6289 	 -25.3004 	 -110.846 	 
H 	 48.7007 	 -24.0631 	 -110.965 	 
C 	 49.3285 	 -25.3134 	 -109.456 	 
H 	 49.9326 	 -25.9408 	 -110.147 	 
H 	 49.8979 	 -24.4695 	 -109.023 	 
H 	 49.0126 	 -25.8804 	 -108.57 	 
S 	 43.0974 	 -23.5552 	 -113.716 	 
C 	 42.9963 	 -22.9774 	 -115.343 	 
C 	 44.1285 	 -22.2054 	 -115.66 	 
C 	 44.9362 	 -21.8615 	 -114.501 	 
C 	 44.4781 	 -22.5297 	 -113.351 	 
H 	 44.2936 	 -21.9205 	 -116.674 	 
C 	 46.1388 	 -20.8343 	 -114.607 	 
H 	 46.9732 	 -21.4527 	 -114.295 	 
H 	 46.0077 	 -20.1281 	 -113.778 	 
C 	 46.3743 	 -20.0125 	 -115.913 	 
H 	 45.5638 	 -19.4534 	 -116.267 	 
H 	 46.4684 	 -20.6137 	 -116.889 	 
C 	 47.6192 	 -19.1842 	 -115.909 	 
H 	 48.3804 	 -19.9567 	 -115.574 	 
H 	 47.5157 	 -18.4001 	 -115.197 	 
H 	 47.9385 	 -18.7427 	 -116.843 	 
H 	 45.0788 	 -22.1631 	 -108.326 	 
H 	 42.2843 	 -23.3654 	 -116.072 	 
