34

S 	 -49.1124 	 15.053 	 24.703 	 
C 	 -48.4048 	 15.8376 	 23.2858 	 
C 	 -47.5609 	 16.862 	 23.6505 	 
C 	 -47.4206 	 17.0252 	 25.0521 	 
C 	 -48.1039 	 16.0925 	 25.809 	 
H 	 -46.7803 	 17.7027 	 25.5613 	 
C 	 -46.9139 	 17.9214 	 22.7781 	 
H 	 -46.8438 	 17.4842 	 21.786 	 
H 	 -45.8074 	 17.9375 	 23.102 	 
C 	 -47.4365 	 19.394 	 22.9017 	 
H 	 -48.4778 	 19.414 	 22.4537 	 
H 	 -47.4965 	 19.6999 	 23.9631 	 
C 	 -46.5313 	 20.3151 	 22.1331 	 
H 	 -45.6617 	 20.7689 	 22.5685 	 
H 	 -46.2183 	 19.812 	 21.1613 	 
H 	 -47.166 	 21.1674 	 21.8369 	 
S 	 -47.9645 	 13.9968 	 27.5624 	 
C 	 -47.7015 	 14.2506 	 29.3237 	 
C 	 -47.4375 	 15.5729 	 29.5882 	 
C 	 -47.5382 	 16.4499 	 28.4203 	 
C 	 -47.8691 	 15.7136 	 27.2071 	 
H 	 -47.3035 	 15.7656 	 30.5348 	 
C 	 -47.4262 	 17.9826 	 28.6355 	 
H 	 -46.9284 	 18.4667 	 27.7609 	 
H 	 -46.9792 	 18.291 	 29.6335 	 
C 	 -48.8247 	 18.6559 	 28.7845 	 
H 	 -49.4097 	 18.6017 	 27.8638 	 
H 	 -48.7853 	 19.73 	 28.9041 	 
C 	 -49.7289 	 17.9363 	 29.7649 	 
H 	 -49.7517 	 16.8722 	 29.5359 	 
H 	 -50.77 	 18.2821 	 29.7736 	 
H 	 -49.3481 	 18.0834 	 30.7889 	 
H 	 -48.7637 	 15.9405 	 22.2992 	 
H 	 -47.6671 	 13.4597 	 30.0918 	 
