34

S 	 -41.6414 	 -48.7722 	 -71.8697 	 
C 	 -41.5443 	 -47.1159 	 -72.4715 	 
C 	 -41.89 	 -46.2264 	 -71.5209 	 
C 	 -42.2467 	 -46.8169 	 -70.3054 	 
C 	 -41.9886 	 -48.149 	 -70.2353 	 
H 	 -42.4359 	 -46.3085 	 -69.4309 	 
C 	 -41.9848 	 -44.7526 	 -71.6694 	 
H 	 -41.268 	 -44.3003 	 -72.3969 	 
H 	 -41.9059 	 -44.2547 	 -70.6545 	 
C 	 -43.3604 	 -44.1549 	 -72.2563 	 
H 	 -43.2627 	 -43.1218 	 -72.3354 	 
H 	 -43.583 	 -44.4197 	 -73.2431 	 
C 	 -44.499 	 -44.257 	 -71.3108 	 
H 	 -45.2083 	 -43.6894 	 -71.8263 	 
H 	 -44.8618 	 -45.2714 	 -71.1092 	 
H 	 -44.3638 	 -43.7306 	 -70.3178 	 
S 	 -40.3303 	 -49.5446 	 -68.5517 	 
C 	 -40.9977 	 -50.2424 	 -67.0493 	 
C 	 -42.2841 	 -49.7706 	 -66.8742 	 
C 	 -42.7934 	 -48.9566 	 -67.9358 	 
C 	 -41.8655 	 -48.9161 	 -68.9649 	 
H 	 -42.9024 	 -50.0784 	 -65.9789 	 
C 	 -44.2801 	 -48.5278 	 -67.9461 	 
H 	 -44.2347 	 -47.4812 	 -68.3779 	 
H 	 -44.5587 	 -48.432 	 -66.8819 	 
C 	 -45.171 	 -49.3979 	 -68.814 	 
H 	 -45.1542 	 -50.4542 	 -68.4816 	 
H 	 -44.6353 	 -49.4258 	 -69.7991 	 
C 	 -46.5501 	 -48.8613 	 -69.2383 	 
H 	 -47.2654 	 -48.7631 	 -68.4178 	 
H 	 -46.9636 	 -49.4071 	 -70.1234 	 
H 	 -46.3685 	 -47.8755 	 -69.6609 	 
H 	 -41.1749 	 -46.9013 	 -73.4735 	 
H 	 -40.4661 	 -50.875 	 -66.3232 	 
