34

S 	 -111.224 	 31.4319 	 -19.7641 	 
C 	 -111.553 	 29.7982 	 -19.415 	 
C 	 -110.537 	 28.9988 	 -19.8894 	 
C 	 -109.318 	 29.7529 	 -20.1316 	 
C 	 -109.566 	 31.0922 	 -20.2335 	 
H 	 -108.377 	 29.3336 	 -20.3853 	 
C 	 -110.661 	 27.4501 	 -20.0481 	 
H 	 -109.793 	 27.1853 	 -19.4057 	 
H 	 -110.469 	 27.2619 	 -21.1245 	 
C 	 -111.92 	 26.7888 	 -19.6004 	 
H 	 -112.023 	 26.7755 	 -18.5747 	 
H 	 -112.748 	 27.4094 	 -19.9102 	 
C 	 -112.146 	 25.4081 	 -20.2075 	 
H 	 -111.377 	 24.7656 	 -19.8059 	 
H 	 -113.013 	 24.9295 	 -19.822 	 
H 	 -112.194 	 25.3082 	 -21.2677 	 
S 	 -108.565 	 33.6556 	 -19.8614 	 
C 	 -107.408 	 34.2073 	 -21.0417 	 
C 	 -107.127 	 33.3018 	 -22.0244 	 
C 	 -107.697 	 32.0168 	 -21.7408 	 
C 	 -108.636 	 32.1062 	 -20.7084 	 
H 	 -106.389 	 33.4495 	 -22.8076 	 
C 	 -107.512 	 30.842 	 -22.7099 	 
H 	 -107.477 	 31.2356 	 -23.723 	 
H 	 -108.46 	 30.2823 	 -22.6646 	 
C 	 -106.333 	 29.8683 	 -22.3515 	 
H 	 -106.512 	 29.358 	 -21.4038 	 
H 	 -105.501 	 30.5465 	 -22.2527 	 
C 	 -106.154 	 28.8397 	 -23.5656 	 
H 	 -106.988 	 28.1895 	 -23.7736 	 
H 	 -105.33 	 28.1529 	 -23.321 	 
H 	 -105.944 	 29.4026 	 -24.4502 	 
H 	 -112.497 	 29.4161 	 -19.0888 	 
H 	 -106.998 	 35.2097 	 -21.1452 	 
