34

S 	 -50.8743 	 12.7623 	 21.7375 	 
C 	 -50.137 	 11.1893 	 22.2842 	 
C 	 -51.1084 	 10.3622 	 22.7383 	 
C 	 -52.3682 	 10.9825 	 22.8286 	 
C 	 -52.4014 	 12.3104 	 22.454 	 
H 	 -53.3306 	 10.5959 	 23.1791 	 
C 	 -50.9554 	 8.88564 	 23.1692 	 
H 	 -51.968 	 8.4657 	 22.9022 	 
H 	 -50.8316 	 8.88605 	 24.2511 	 
C 	 -49.9056 	 8.0159 	 22.4247 	 
H 	 -50.1994 	 7.96404 	 21.375 	 
H 	 -48.8983 	 8.34939 	 22.3179 	 
C 	 -49.7365 	 6.58185 	 23.0053 	 
H 	 -48.978 	 5.97144 	 22.5341 	 
H 	 -49.4233 	 6.69816 	 24.0835 	 
H 	 -50.6822 	 6.0655 	 23.0349 	 
S 	 -53.8866 	 13.8927 	 20.7131 	 
C 	 -55.117 	 14.9322 	 21.3483 	 
C 	 -55.4214 	 14.5848 	 22.6691 	 
C 	 -54.5264 	 13.5553 	 23.194 	 
C 	 -53.5696 	 13.113 	 22.2946 	 
H 	 -56.2793 	 15.02 	 23.1131 	 
C 	 -54.4717 	 13.1628 	 24.6794 	 
H 	 -53.8422 	 12.2909 	 24.8952 	 
H 	 -55.4701 	 12.8659 	 24.9869 	 
C 	 -53.9087 	 14.2803 	 25.6404 	 
H 	 -54.4653 	 15.1569 	 25.3577 	 
H 	 -52.8248 	 14.4226 	 25.3936 	 
C 	 -54.0691 	 13.9427 	 27.1 	 
H 	 -53.56 	 14.5977 	 27.82 	 
H 	 -53.6741 	 12.9373 	 27.2201 	 
H 	 -55.1185 	 13.7603 	 27.3532 	 
H 	 -49.1195 	 11.006 	 22.3191 	 
H 	 -55.8113 	 15.5113 	 20.782 	 
