34

S 	 13.0165 	 -15.5077 	 -120.562 	 
C 	 11.3889 	 -15.6896 	 -121.068 	 
C 	 10.552 	 -15.7527 	 -119.965 	 
C 	 11.3072 	 -15.6029 	 -118.708 	 
C 	 12.6639 	 -15.4796 	 -118.9 	 
H 	 10.8833 	 -15.7207 	 -117.666 	 
C 	 9.11033 	 -15.911 	 -120.048 	 
H 	 8.77187 	 -16.7217 	 -119.473 	 
H 	 8.85785 	 -15.9282 	 -121.111 	 
C 	 8.2518 	 -14.6895 	 -119.508 	 
H 	 8.57743 	 -14.4958 	 -118.499 	 
H 	 8.66948 	 -13.8119 	 -120.046 	 
C 	 6.74672 	 -14.8727 	 -119.783 	 
H 	 6.60601 	 -15.0804 	 -120.866 	 
H 	 6.318 	 -15.6413 	 -119.142 	 
H 	 6.10227 	 -14.0072 	 -119.431 	 
S 	 14.6555 	 -13.988 	 -117.562 	 
C 	 15.637 	 -14.8487 	 -116.422 	 
C 	 15.2724 	 -16.1874 	 -116.33 	 
C 	 14.1978 	 -16.5249 	 -117.199 	 
C 	 13.7757 	 -15.4766 	 -117.971 	 
H 	 15.7391 	 -16.8925 	 -115.63 	 
C 	 13.6735 	 -17.9499 	 -117.28 	 
H 	 12.6222 	 -17.8805 	 -117.641 	 
H 	 13.4777 	 -18.2791 	 -116.267 	 
C 	 14.4079 	 -18.8483 	 -118.212 	 
H 	 15.431 	 -18.9801 	 -117.876 	 
H 	 14.552 	 -18.3094 	 -119.178 	 
C 	 13.7086 	 -20.1579 	 -118.51 	 
H 	 14.3883 	 -20.8366 	 -119.058 	 
H 	 12.8079 	 -20.1766 	 -119.099 	 
H 	 13.5896 	 -20.5436 	 -117.487 	 
H 	 11.0071 	 -15.8318 	 -122.058 	 
H 	 16.4887 	 -14.4035 	 -115.874 	 
