34

S 	 -56.7423 	 -2.63118 	 -29.0099 	 
C 	 -56.0897 	 -3.31808 	 -27.5044 	 
C 	 -55.0653 	 -2.49016 	 -27.0643 	 
C 	 -54.8736 	 -1.31113 	 -27.8711 	 
C 	 -55.747 	 -1.21414 	 -28.9249 	 
H 	 -54.1607 	 -0.529717 	 -27.8154 	 
C 	 -54.1744 	 -2.69077 	 -25.9187 	 
H 	 -54.8197 	 -2.99561 	 -25.1206 	 
H 	 -53.8003 	 -1.71719 	 -25.5357 	 
C 	 -52.9814 	 -3.57688 	 -26.222 	 
H 	 -53.2152 	 -4.51871 	 -26.7119 	 
H 	 -52.5501 	 -3.11004 	 -27.0316 	 
C 	 -52.0164 	 -3.84248 	 -25.1052 	 
H 	 -51.3721 	 -4.68707 	 -25.2922 	 
H 	 -51.3735 	 -2.9901 	 -24.8882 	 
H 	 -52.5599 	 -4.12534 	 -24.2037 	 
S 	 -55.8183 	 -0.846312 	 -31.605 	 
C 	 -55.5941 	 0.756737 	 -32.2652 	 
C 	 -55.4144 	 1.69094 	 -31.2636 	 
C 	 -55.3773 	 1.13097 	 -29.9524 	 
C 	 -55.7198 	 -0.228885 	 -29.9663 	 
H 	 -55.1738 	 2.70819 	 -31.5229 	 
C 	 -55.3702 	 2.08763 	 -28.7438 	 
H 	 -55.1845 	 3.1432 	 -29.0401 	 
H 	 -54.473 	 1.88766 	 -28.2115 	 
C 	 -56.5304 	 1.98997 	 -27.7034 	 
H 	 -56.3352 	 2.60658 	 -26.8741 	 
H 	 -56.4713 	 1.11773 	 -27.1734 	 
C 	 -57.9725 	 2.11955 	 -28.2535 	 
H 	 -58.1409 	 3.09471 	 -28.787 	 
H 	 -58.8259 	 2.26873 	 -27.4698 	 
H 	 -58.2757 	 1.17183 	 -28.7969 	 
H 	 -56.4254 	 -4.19205 	 -27.1029 	 
H 	 -55.6356 	 0.962934 	 -33.3552 	 
