34

S 	 -87.7613 	 -28.4489 	 -61.9678 	 
C 	 -88.6373 	 -27.0129 	 -62.4817 	 
C 	 -88.8949 	 -26.2296 	 -61.3805 	 
C 	 -88.3993 	 -26.7712 	 -60.1446 	 
C 	 -87.6676 	 -27.918 	 -60.2581 	 
H 	 -88.4185 	 -26.2096 	 -59.2362 	 
C 	 -89.4221 	 -24.7979 	 -61.5183 	 
H 	 -89.2205 	 -24.4104 	 -62.5399 	 
H 	 -88.7617 	 -24.1399 	 -60.8703 	 
C 	 -90.8947 	 -24.6536 	 -61.1262 	 
H 	 -91.2252 	 -23.5774 	 -61.4535 	 
H 	 -91.5123 	 -25.387 	 -61.7372 	 
C 	 -91.2554 	 -24.9019 	 -59.6694 	 
H 	 -91.3 	 -26.0127 	 -59.4101 	 
H 	 -90.6006 	 -24.4988 	 -58.9617 	 
H 	 -92.2673 	 -24.5107 	 -59.4249 	 
S 	 -87.1732 	 -30.5798 	 -59.415 	 
C 	 -86.2769 	 -30.9069 	 -58.0019 	 
C 	 -85.9877 	 -29.7195 	 -57.3349 	 
C 	 -86.516 	 -28.5958 	 -58.0191 	 
C 	 -87.2051 	 -28.8056 	 -59.183 	 
H 	 -85.4879 	 -29.7746 	 -56.3871 	 
C 	 -86.2567 	 -27.2135 	 -57.5188 	 
H 	 -86.3386 	 -26.5167 	 -58.3522 	 
H 	 -85.1785 	 -27.1192 	 -57.2091 	 
C 	 -87.2591 	 -26.7902 	 -56.4324 	 
H 	 -87.2694 	 -27.5702 	 -55.6431 	 
H 	 -88.2169 	 -26.883 	 -56.8748 	 
C 	 -86.9203 	 -25.3958 	 -55.7392 	 
H 	 -87.6214 	 -25.1217 	 -54.8829 	 
H 	 -86.9809 	 -24.6076 	 -56.4652 	 
H 	 -85.807 	 -25.3742 	 -55.3252 	 
H 	 -88.8338 	 -26.769 	 -63.5183 	 
H 	 -85.9358 	 -31.8897 	 -57.6831 	 
