34

S 	 26.0611 	 -9.55809 	 -114.115 	 
C 	 27.7337 	 -9.22912 	 -114.634 	 
C 	 28.4468 	 -8.85309 	 -113.539 	 
C 	 27.673 	 -8.56378 	 -112.372 	 
C 	 26.2933 	 -8.75648 	 -112.519 	 
H 	 28.0976 	 -8.23491 	 -111.484 	 
C 	 29.9328 	 -8.6224 	 -113.467 	 
H 	 30.1618 	 -7.54586 	 -113.39 	 
H 	 30.2117 	 -9.0548 	 -114.461 	 
C 	 30.6588 	 -9.40271 	 -112.365 	 
H 	 31.6916 	 -9.09931 	 -112.339 	 
H 	 30.2299 	 -9.0238 	 -111.436 	 
C 	 30.5091 	 -10.9157 	 -112.506 	 
H 	 31.1211 	 -11.325 	 -111.743 	 
H 	 29.5184 	 -11.2081 	 -112.13 	 
H 	 30.6963 	 -11.3242 	 -113.481 	 
S 	 24.1313 	 -10.0605 	 -111.656 	 
C 	 23.1631 	 -9.44555 	 -110.357 	 
C 	 23.6839 	 -8.29025 	 -109.84 	 
C 	 24.9523 	 -7.9217 	 -110.418 	 
C 	 25.2423 	 -8.74143 	 -111.546 	 
H 	 23.0887 	 -7.83885 	 -109.093 	 
C 	 25.609 	 -6.59524 	 -110.158 	 
H 	 24.7317 	 -5.90107 	 -110.111 	 
H 	 26.1935 	 -6.35205 	 -111.03 	 
C 	 26.5198 	 -6.52774 	 -108.988 	 
H 	 27.1836 	 -7.39058 	 -108.982 	 
H 	 26.0325 	 -6.5175 	 -108.035 	 
C 	 27.363 	 -5.26282 	 -109.157 	 
H 	 27.8596 	 -4.88926 	 -108.297 	 
H 	 26.7392 	 -4.42642 	 -109.459 	 
H 	 28.0492 	 -5.41971 	 -109.936 	 
H 	 28.2922 	 -9.51732 	 -115.558 	 
H 	 22.1222 	 -9.86903 	 -110.191 	 
