34

S 	 -32.708 	 -4.34169 	 9.83838 	 
C 	 -33.5052 	 -3.78405 	 11.2907 	 
C 	 -34.6789 	 -4.49338 	 11.4728 	 
C 	 -34.985 	 -5.41545 	 10.4224 	 
C 	 -33.9584 	 -5.57879 	 9.5221 	 
H 	 -35.9497 	 -6.01257 	 10.3224 	 
C 	 -35.5473 	 -4.43397 	 12.7243 	 
H 	 -34.8719 	 -4.28144 	 13.5629 	 
H 	 -36.0717 	 -5.3565 	 12.7561 	 
C 	 -36.5532 	 -3.28144 	 12.8227 	 
H 	 -36.152 	 -2.27619 	 12.8409 	 
H 	 -37.1593 	 -3.22657 	 11.8365 	 
C 	 -37.6248 	 -3.42212 	 13.9266 	 
H 	 -37.1118 	 -3.50665 	 14.9039 	 
H 	 -38.2599 	 -2.56388 	 13.9789 	 
H 	 -38.3556 	 -4.31675 	 13.8932 	 
S 	 -32.6022 	 -7.26733 	 7.94481 	 
C 	 -33.1587 	 -7.70209 	 6.31081 	 
C 	 -34.4728 	 -7.31371 	 6.14656 	 
C 	 -34.928 	 -6.4757 	 7.20646 	 
C 	 -34.0367 	 -6.31999 	 8.24132 	 
H 	 -35.1133 	 -7.70099 	 5.32428 	 
C 	 -36.3675 	 -5.96443 	 7.14169 	 
H 	 -36.4565 	 -5.42393 	 6.21631 	 
H 	 -36.4199 	 -5.22359 	 7.91331 	 
C 	 -37.412 	 -7.10762 	 7.2371 	 
H 	 -37.3954 	 -7.54396 	 8.24611 	 
H 	 -37.1563 	 -7.92799 	 6.57873 	 
C 	 -38.753 	 -6.52298 	 6.92413 	 
H 	 -38.6368 	 -6.14704 	 5.84613 	 
H 	 -38.9863 	 -5.6418 	 7.60136 	 
H 	 -39.5218 	 -7.2829 	 6.9278 	 
H 	 -33.0424 	 -3.00382 	 11.8069 	 
H 	 -32.6305 	 -8.40431 	 5.72722 	 
