34

S 	 -108.868 	 25.971 	 -118.031 	 
C 	 -108.003 	 26.9039 	 -116.779 	 
C 	 -106.909 	 27.6895 	 -117.29 	 
C 	 -106.82 	 27.4408 	 -118.736 	 
C 	 -107.794 	 26.6076 	 -119.236 	 
H 	 -106.021 	 27.8967 	 -119.307 	 
C 	 -106.031 	 28.637 	 -116.463 	 
H 	 -104.974 	 28.1685 	 -116.541 	 
H 	 -106.304 	 28.4482 	 -115.409 	 
C 	 -106.094 	 30.1671 	 -116.808 	 
H 	 -107.137 	 30.2949 	 -117.066 	 
H 	 -106.026 	 30.6737 	 -115.855 	 
C 	 -105.304 	 30.6766 	 -117.994 	 
H 	 -104.211 	 30.6331 	 -117.83 	 
H 	 -105.489 	 30.2168 	 -118.992 	 
H 	 -105.515 	 31.7462 	 -118.197 	 
S 	 -107.426 	 24.7167 	 -121.076 	 
C 	 -107.594 	 25.1413 	 -122.709 	 
C 	 -108.328 	 26.29 	 -122.948 	 
C 	 -108.514 	 27.0685 	 -121.758 	 
C 	 -108.063 	 26.3159 	 -120.666 	 
H 	 -108.579 	 26.6522 	 -124.001 	 
C 	 -109.183 	 28.4047 	 -121.857 	 
H 	 -108.954 	 28.8541 	 -122.891 	 
H 	 -108.814 	 29.047 	 -121.028 	 
C 	 -110.702 	 28.3617 	 -121.764 	 
H 	 -111.012 	 27.6968 	 -122.529 	 
H 	 -111.092 	 29.38 	 -121.881 	 
C 	 -111.271 	 27.7145 	 -120.529 	 
H 	 -110.697 	 28.2574 	 -119.711 	 
H 	 -111.139 	 26.6187 	 -120.391 	 
H 	 -112.32 	 27.9054 	 -120.382 	 
H 	 -108.23 	 26.7597 	 -115.761 	 
H 	 -107.111 	 24.6586 	 -123.58 	 
