34

S 	 -66.0808 	 14.2278 	 -70.9041 	 
C 	 -66.1461 	 13.8243 	 -69.2477 	 
C 	 -67.1497 	 14.4563 	 -68.5216 	 
C 	 -67.8819 	 15.3557 	 -69.3445 	 
C 	 -67.3669 	 15.4561 	 -70.6297 	 
H 	 -68.7436 	 15.9088 	 -68.968 	 
C 	 -67.4402 	 14.1992 	 -67.0754 	 
H 	 -67.7276 	 13.1249 	 -66.8374 	 
H 	 -68.2706 	 14.8325 	 -66.8414 	 
C 	 -66.2795 	 14.6005 	 -66.1299 	 
H 	 -66.5612 	 14.3123 	 -65.097 	 
H 	 -65.411 	 13.9833 	 -66.4253 	 
C 	 -65.7297 	 16.071 	 -66.1233 	 
H 	 -65.3917 	 16.442 	 -67.0582 	 
H 	 -66.5741 	 16.6399 	 -65.7171 	 
H 	 -64.9013 	 16.1588 	 -65.4415 	 
S 	 -68.8725 	 15.5805 	 -72.9702 	 
C 	 -69.2005 	 17.1808 	 -73.738 	 
C 	 -68.6147 	 18.1437 	 -72.9516 	 
C 	 -68.0464 	 17.6931 	 -71.7173 	 
C 	 -67.9161 	 16.3537 	 -71.6436 	 
H 	 -68.6929 	 19.1901 	 -73.2973 	 
C 	 -67.3536 	 18.6948 	 -70.7506 	 
H 	 -66.9158 	 19.4922 	 -71.3539 	 
H 	 -66.4247 	 18.2651 	 -70.3419 	 
C 	 -68.1293 	 19.2539 	 -69.5251 	 
H 	 -67.4187 	 19.7449 	 -68.9434 	 
H 	 -68.5906 	 18.3978 	 -69.0031 	 
C 	 -69.2681 	 20.1682 	 -70.1227 	 
H 	 -69.8882 	 19.5271 	 -70.773 	 
H 	 -68.9274 	 21.0613 	 -70.7249 	 
H 	 -69.9726 	 20.455 	 -69.3776 	 
H 	 -65.5675 	 13.1141 	 -68.7558 	 
H 	 -69.8233 	 17.4049 	 -74.6391 	 
