34

S 	 -88.4219 	 -31.6464 	 -72.4397 	 
C 	 -87.787 	 -33.1105 	 -73.2397 	 
C 	 -88.7894 	 -33.8097 	 -73.8725 	 
C 	 -90.0345 	 -33.1846 	 -73.7439 	 
C 	 -89.9665 	 -31.892 	 -73.259 	 
H 	 -90.9716 	 -33.5183 	 -74.128 	 
C 	 -88.779 	 -35.2312 	 -74.4568 	 
H 	 -89.4864 	 -35.3529 	 -75.3541 	 
H 	 -89.0246 	 -35.983 	 -73.7594 	 
C 	 -87.4676 	 -35.7649 	 -74.9983 	 
H 	 -87.1782 	 -34.9652 	 -75.7284 	 
H 	 -86.7171 	 -35.8581 	 -74.1989 	 
C 	 -87.6995 	 -37.2222 	 -75.6001 	 
H 	 -88.497 	 -37.0946 	 -76.364 	 
H 	 -86.847 	 -37.6704 	 -76.1263 	 
H 	 -88.1339 	 -37.8987 	 -74.7925 	 
S 	 -91.1179 	 -30.3379 	 -71.3609 	 
C 	 -92.48 	 -29.3424 	 -71.7001 	 
C 	 -93.0011 	 -29.6754 	 -72.9532 	 
C 	 -92.2148 	 -30.6384 	 -73.6258 	 
C 	 -91.0399 	 -30.9687 	 -72.9572 	 
H 	 -93.915 	 -29.2154 	 -73.3287 	 
C 	 -92.5553 	 -31.0348 	 -75.0407 	 
H 	 -93.6551 	 -31.0206 	 -75.1112 	 
H 	 -92.3031 	 -32.0965 	 -75.1795 	 
C 	 -91.7914 	 -30.1618 	 -76.1179 	 
H 	 -90.7119 	 -30.2658 	 -75.8381 	 
H 	 -92.0527 	 -29.1006 	 -75.957 	 
C 	 -92.0428 	 -30.4267 	 -77.574 	 
H 	 -91.6756 	 -31.4714 	 -77.7395 	 
H 	 -91.3576 	 -29.8198 	 -78.2072 	 
H 	 -93.1466 	 -30.402 	 -77.8705 	 
H 	 -86.7706 	 -33.5235 	 -72.9852 	 
H 	 -92.8815 	 -28.6189 	 -71.0409 	 
