34

S 	 -124.769 	 62.6005 	 -43.0118 	 
C 	 -124.214 	 63.1516 	 -44.533 	 
C 	 -123.544 	 64.3684 	 -44.4143 	 
C 	 -123.783 	 64.9391 	 -43.1177 	 
C 	 -124.464 	 64.1321 	 -42.2376 	 
H 	 -123.341 	 65.8667 	 -42.8204 	 
C 	 -122.716 	 64.9592 	 -45.5081 	 
H 	 -122.548 	 64.1558 	 -46.2357 	 
H 	 -121.712 	 65.1741 	 -45.1332 	 
C 	 -123.32 	 66.0839 	 -46.3729 	 
H 	 -122.727 	 66.2226 	 -47.2702 	 
H 	 -124.37 	 65.9427 	 -46.6529 	 
C 	 -123.37 	 67.3614 	 -45.5196 	 
H 	 -123.906 	 68.1607 	 -46.0371 	 
H 	 -123.854 	 67.2985 	 -44.5364 	 
H 	 -122.298 	 67.5508 	 -45.2974 	 
S 	 -124.917 	 62.9925 	 -39.8319 	 
C 	 -125.546 	 63.9945 	 -38.5897 	 
C 	 -125.596 	 65.3225 	 -38.9094 	 
C 	 -125.067 	 65.5657 	 -40.2328 	 
C 	 -124.702 	 64.4115 	 -40.854 	 
H 	 -126.117 	 66.0321 	 -38.2667 	 
C 	 -125.345 	 66.8646 	 -40.9335 	 
H 	 -124.505 	 67.1975 	 -41.4753 	 
H 	 -125.392 	 67.7194 	 -40.2066 	 
C 	 -126.57 	 66.8058 	 -41.9141 	 
H 	 -127.556 	 66.6513 	 -41.5309 	 
H 	 -126.34 	 65.9351 	 -42.4991 	 
C 	 -126.687 	 68.1394 	 -42.695 	 
H 	 -125.83 	 68.3206 	 -43.3757 	 
H 	 -126.771 	 69.0244 	 -42.1776 	 
H 	 -127.599 	 68.0992 	 -43.3132 	 
H 	 -124.205 	 62.4995 	 -45.3795 	 
H 	 -126.108 	 63.5971 	 -37.7808 	 
