34

S 	 15.8935 	 -13.5832 	 -120.512 	 
C 	 14.8943 	 -12.2334 	 -120.104 	 
C 	 13.6208 	 -12.5892 	 -119.802 	 
C 	 13.5771 	 -14.0179 	 -119.671 	 
C 	 14.6356 	 -14.726 	 -120.169 	 
H 	 12.7124 	 -14.6824 	 -119.464 	 
C 	 12.3866 	 -11.7745 	 -119.567 	 
H 	 11.6023 	 -12.2838 	 -119.134 	 
H 	 12.0062 	 -11.5145 	 -120.611 	 
C 	 12.6407 	 -10.4232 	 -118.989 	 
H 	 13.4081 	 -10.5152 	 -118.185 	 
H 	 13.0286 	 -9.7265 	 -119.664 	 
C 	 11.4713 	 -9.66328 	 -118.323 	 
H 	 11.874 	 -8.79685 	 -117.798 	 
H 	 10.8169 	 -9.25305 	 -119.17 	 
H 	 10.8527 	 -10.3199 	 -117.651 	 
S 	 15.0288 	 -16.9761 	 -121.703 	 
C 	 15.4294 	 -18.433 	 -120.901 	 
C 	 15.4145 	 -18.3341 	 -119.532 	 
C 	 15.014 	 -17.0166 	 -119.076 	 
C 	 14.8856 	 -16.134 	 -120.153 	 
H 	 15.5377 	 -19.1519 	 -118.826 	 
C 	 14.9339 	 -16.6416 	 -117.612 	 
H 	 15.0112 	 -15.5502 	 -117.59 	 
H 	 15.8275 	 -17.0373 	 -117.133 	 
C 	 13.6548 	 -16.9298 	 -116.793 	 
H 	 13.5705 	 -17.9929 	 -116.775 	 
H 	 12.8963 	 -16.5612 	 -117.534 	 
C 	 13.5375 	 -16.203 	 -115.442 	 
H 	 14.117 	 -16.621 	 -114.656 	 
H 	 12.5187 	 -16.1104 	 -115.038 	 
H 	 13.8778 	 -15.1722 	 -115.634 	 
H 	 15.1381 	 -11.1852 	 -120.172 	 
H 	 15.6721 	 -19.3593 	 -121.356 	 
