34

S 	 -53.3923 	 3.83418 	 -22.3403 	 
C 	 -52.8545 	 2.49902 	 -23.3348 	 
C 	 -53.5772 	 1.35062 	 -23.0644 	 
C 	 -54.4336 	 1.50545 	 -21.891 	 
C 	 -54.3215 	 2.75303 	 -21.3807 	 
H 	 -55.0898 	 0.766678 	 -21.4944 	 
C 	 -53.3294 	 0.0485914 	 -23.8275 	 
H 	 -53.6045 	 0.0721748 	 -24.9313 	 
H 	 -53.8504 	 -0.65612 	 -23.2455 	 
C 	 -51.8926 	 -0.517517 	 -23.8753 	 
H 	 -51.4099 	 0.0263865 	 -24.6658 	 
H 	 -51.3198 	 -0.377849 	 -22.9101 	 
C 	 -51.8258 	 -1.85857 	 -24.5086 	 
H 	 -51.9957 	 -1.82075 	 -25.5691 	 
H 	 -50.8086 	 -2.35203 	 -24.3973 	 
H 	 -52.6031 	 -2.55519 	 -24.1164 	 
S 	 -56.1119 	 4.48409 	 -20.021 	 
C 	 -56.1839 	 4.37164 	 -18.2043 	 
C 	 -55.2686 	 3.43557 	 -17.7439 	 
C 	 -54.5398 	 2.86133 	 -18.8082 	 
C 	 -54.8927 	 3.28693 	 -20.0986 	 
H 	 -55.0875 	 3.14919 	 -16.7789 	 
C 	 -53.5572 	 1.73021 	 -18.4822 	 
H 	 -53.8804 	 0.754206 	 -18.9314 	 
H 	 -53.4828 	 1.54245 	 -17.3768 	 
C 	 -52.2005 	 1.92111 	 -19.0924 	 
H 	 -51.8663 	 2.96145 	 -19.0955 	 
H 	 -52.1634 	 1.62763 	 -20.1275 	 
C 	 -51.03 	 1.18874 	 -18.4176 	 
H 	 -50.1393 	 1.65963 	 -18.8494 	 
H 	 -50.9731 	 0.0750315 	 -18.5787 	 
H 	 -50.9386 	 1.35073 	 -17.3643 	 
H 	 -51.9899 	 2.55163 	 -23.9331 	 
H 	 -56.8925 	 4.81208 	 -17.5157 	 
