34

S 	 -57.6867 	 6.59659 	 -17.391 	 
C 	 -57.1176 	 4.94587 	 -17.2597 	 
C 	 -58.0631 	 4.04161 	 -17.7718 	 
C 	 -59.2806 	 4.71619 	 -18.1304 	 
C 	 -59.2052 	 6.06186 	 -17.9133 	 
H 	 -60.2204 	 4.28982 	 -18.4687 	 
C 	 -58.035 	 2.55249 	 -17.6624 	 
H 	 -57.0463 	 2.23703 	 -18.0463 	 
H 	 -58.8698 	 2.20874 	 -18.2838 	 
C 	 -58.1719 	 1.9935 	 -16.2765 	 
H 	 -57.3014 	 2.14881 	 -15.6723 	 
H 	 -59.0346 	 2.45684 	 -15.7979 	 
C 	 -58.2667 	 0.453256 	 -16.2293 	 
H 	 -59.2432 	 0.105325 	 -16.5683 	 
H 	 -57.4961 	 -0.00262727 	 -16.7967 	 
H 	 -58.1323 	 0.0484866 	 -15.2334 	 
S 	 -61.1956 	 7.51223 	 -16.5425 	 
C 	 -62.1749 	 8.63922 	 -17.4107 	 
C 	 -61.9231 	 8.5962 	 -18.7639 	 
C 	 -60.8437 	 7.75266 	 -19.0858 	 
C 	 -60.2635 	 7.07872 	 -17.9912 	 
H 	 -62.4926 	 9.17571 	 -19.4838 	 
C 	 -60.3577 	 7.84091 	 -20.5574 	 
H 	 -59.2736 	 7.79918 	 -20.4583 	 
H 	 -60.5022 	 8.82621 	 -20.884 	 
C 	 -60.9809 	 6.90904 	 -21.5993 	 
H 	 -60.5928 	 7.23307 	 -22.6528 	 
H 	 -62.0427 	 7.28173 	 -21.5653 	 
C 	 -60.8372 	 5.41716 	 -21.3004 	 
H 	 -59.7579 	 5.3239 	 -21.0803 	 
H 	 -61.1729 	 4.81555 	 -22.1429 	 
H 	 -61.4658 	 5.08158 	 -20.4907 	 
H 	 -56.1251 	 4.64943 	 -16.8538 	 
H 	 -62.7781 	 9.46175 	 -16.9109 	 
