34

S 	 -114.429 	 39.8573 	 -120.677 	 
C 	 -113.529 	 38.4174 	 -120.957 	 
C 	 -114.175 	 37.5662 	 -121.879 	 
C 	 -115.276 	 38.1836 	 -122.486 	 
C 	 -115.64 	 39.3685 	 -121.866 	 
H 	 -115.901 	 37.8307 	 -123.285 	 
C 	 -113.595 	 36.2418 	 -122.417 	 
H 	 -112.52 	 36.1696 	 -122.168 	 
H 	 -113.686 	 36.3931 	 -123.498 	 
C 	 -114.275 	 34.9505 	 -121.943 	 
H 	 -113.694 	 34.1137 	 -122.396 	 
H 	 -114.21 	 34.877 	 -120.851 	 
C 	 -115.738 	 34.8154 	 -122.332 	 
H 	 -116.116 	 33.7739 	 -122.221 	 
H 	 -116.381 	 35.4162 	 -121.721 	 
H 	 -115.997 	 35.0525 	 -123.423 	 
S 	 -117.128 	 40.7005 	 -123.745 	 
C 	 -118.599 	 41.4886 	 -123.193 	 
C 	 -119.008 	 41.1518 	 -121.917 	 
C 	 -117.97 	 40.3479 	 -121.281 	 
C 	 -116.863 	 40.0971 	 -122.106 	 
H 	 -119.878 	 41.5371 	 -121.374 	 
C 	 -118.188 	 39.8436 	 -119.918 	 
H 	 -118.909 	 40.5512 	 -119.483 	 
H 	 -117.254 	 39.9553 	 -119.467 	 
C 	 -118.607 	 38.3944 	 -119.738 	 
H 	 -118.45 	 38.1473 	 -118.645 	 
H 	 -117.929 	 37.6889 	 -120.242 	 
C 	 -120.036 	 38.0274 	 -120.087 	 
H 	 -120.35 	 38.2455 	 -121.052 	 
H 	 -120.63 	 38.6355 	 -119.459 	 
H 	 -120.221 	 36.9956 	 -119.83 	 
H 	 -112.588 	 38.1687 	 -120.574 	 
H 	 -119.024 	 42.291 	 -123.662 	 
