34

S 	 -36.9772 	 -49.3966 	 -73.2896 	 
C 	 -37.748 	 -48.0647 	 -74.0613 	 
C 	 -38.7067 	 -47.4996 	 -73.2233 	 
C 	 -38.8845 	 -48.331 	 -72.0842 	 
C 	 -38.0682 	 -49.4542 	 -71.934 	 
H 	 -39.5421 	 -48.0877 	 -71.3234 	 
C 	 -39.4979 	 -46.2297 	 -73.5592 	 
H 	 -38.9098 	 -45.2773 	 -73.5023 	 
H 	 -40.0458 	 -45.9278 	 -72.6552 	 
C 	 -40.2049 	 -46.2061 	 -74.9043 	 
H 	 -40.4994 	 -45.1493 	 -75.0153 	 
H 	 -39.4959 	 -46.5789 	 -75.6127 	 
C 	 -41.4603 	 -47.1446 	 -75.0874 	 
H 	 -42.1553 	 -46.8295 	 -75.7913 	 
H 	 -41.2152 	 -48.178 	 -75.2769 	 
H 	 -42.042 	 -47.1968 	 -74.1388 	 
S 	 -36.2157 	 -50.6111 	 -70.2182 	 
C 	 -36.8554 	 -51.841 	 -69.1285 	 
C 	 -38.2247 	 -51.8838 	 -69.0651 	 
C 	 -38.864 	 -50.9971 	 -70.0229 	 
C 	 -37.8963 	 -50.3165 	 -70.7704 	 
H 	 -38.7072 	 -52.5773 	 -68.3804 	 
C 	 -40.3082 	 -51.1477 	 -70.4268 	 
H 	 -40.5706 	 -52.1386 	 -70.6203 	 
H 	 -40.5557 	 -50.6301 	 -71.3559 	 
C 	 -41.3307 	 -50.5482 	 -69.428 	 
H 	 -41.0878 	 -49.4782 	 -69.3564 	 
H 	 -41.1716 	 -50.9632 	 -68.4095 	 
C 	 -42.7903 	 -50.8265 	 -69.9486 	 
H 	 -43.0078 	 -51.9005 	 -70.0092 	 
H 	 -43.0188 	 -50.5717 	 -71.0681 	 
H 	 -43.5898 	 -50.4058 	 -69.3768 	 
H 	 -37.3528 	 -47.555 	 -74.8544 	 
H 	 -36.2792 	 -52.3802 	 -68.4251 	 
