34

S 	 -106.777 	 0.788772 	 -108.12 	 
C 	 -107.218 	 2.51818 	 -108.243 	 
C 	 -107.21 	 2.86689 	 -109.582 	 
C 	 -106.746 	 1.86003 	 -110.461 	 
C 	 -106.63 	 0.624685 	 -109.866 	 
H 	 -106.719 	 1.95395 	 -111.538 	 
C 	 -107.682 	 4.32845 	 -110.127 	 
H 	 -108.752 	 4.43896 	 -110.124 	 
H 	 -107.358 	 4.36743 	 -111.171 	 
C 	 -107.14 	 5.55792 	 -109.329 	 
H 	 -107.413 	 6.45796 	 -109.851 	 
H 	 -107.544 	 5.52338 	 -108.296 	 
C 	 -105.646 	 5.44387 	 -109.218 	 
H 	 -105.242 	 4.52657 	 -108.786 	 
H 	 -105.223 	 5.46845 	 -110.151 	 
H 	 -105.222 	 6.27635 	 -108.718 	 
S 	 -104.847 	 -1.33691 	 -109.84 	 
C 	 -104.494 	 -2.36337 	 -111.186 	 
C 	 -105.476 	 -2.19156 	 -112.143 	 
C 	 -106.527 	 -1.20111 	 -111.815 	 
C 	 -106.291 	 -0.664886 	 -110.512 	 
H 	 -105.294 	 -2.70398 	 -113.049 	 
C 	 -107.693 	 -0.825885 	 -112.693 	 
H 	 -108.021 	 0.147019 	 -112.443 	 
H 	 -108.589 	 -1.46711 	 -112.363 	 
C 	 -107.464 	 -1.11365 	 -114.254 	 
H 	 -108.46 	 -1.1504 	 -114.747 	 
H 	 -106.94 	 -2.0414 	 -114.431 	 
C 	 -106.583 	 -0.166398 	 -115.078 	 
H 	 -107.051 	 0.771248 	 -115.357 	 
H 	 -106.317 	 -0.614331 	 -115.978 	 
H 	 -105.693 	 0.0885465 	 -114.477 	 
H 	 -107.647 	 3.20072 	 -107.474 	 
H 	 -103.586 	 -2.92753 	 -111.26 	 
