34

S 	 -132.126 	 58.3908 	 -63.9829 	 
C 	 -130.48 	 58.2136 	 -64.4346 	 
C 	 -129.583 	 58.327 	 -63.3651 	 
C 	 -130.288 	 58.5021 	 -62.1909 	 
C 	 -131.622 	 58.6355 	 -62.3278 	 
H 	 -129.815 	 58.5676 	 -61.2276 	 
C 	 -128.073 	 58.3362 	 -63.2953 	 
H 	 -127.862 	 58.3521 	 -62.2469 	 
H 	 -127.893 	 59.3726 	 -63.5635 	 
C 	 -127.236 	 57.2988 	 -64.0264 	 
H 	 -127.156 	 57.5166 	 -65.1157 	 
H 	 -126.204 	 57.3778 	 -63.6732 	 
C 	 -127.955 	 55.9183 	 -63.9002 	 
H 	 -128.746 	 55.6804 	 -64.5648 	 
H 	 -127.256 	 55.0978 	 -64.1379 	 
H 	 -128.287 	 55.6974 	 -62.8105 	 
S 	 -133.889 	 59.5774 	 -61.1149 	 
C 	 -134.648 	 58.7923 	 -59.7837 	 
C 	 -133.886 	 57.713 	 -59.4458 	 
C 	 -132.675 	 57.5195 	 -60.2452 	 
C 	 -132.543 	 58.4668 	 -61.2344 	 
H 	 -134.234 	 57.0419 	 -58.6902 	 
C 	 -131.783 	 56.2877 	 -60.0789 	 
H 	 -131.732 	 55.9811 	 -58.9831 	 
H 	 -130.821 	 56.6458 	 -60.4562 	 
C 	 -132.169 	 55.0368 	 -60.8126 	 
H 	 -131.241 	 54.5498 	 -60.5259 	 
H 	 -132.101 	 55.2866 	 -61.8699 	 
C 	 -133.432 	 54.2946 	 -60.5058 	 
H 	 -134.389 	 54.7366 	 -60.7731 	 
H 	 -133.527 	 54.0572 	 -59.4973 	 
H 	 -133.32 	 53.4224 	 -61.1146 	 
H 	 -130.06 	 58.0253 	 -65.4037 	 
H 	 -135.647 	 59.0638 	 -59.4848 	 
