34

S 	 -62.4086 	 12.5504 	 -87.1437 	 
C 	 -61.4048 	 12.3604 	 -88.586 	 
C 	 -60.2121 	 11.7644 	 -88.3761 	 
C 	 -60.0772 	 11.4975 	 -87.0219 	 
C 	 -61.2146 	 11.7087 	 -86.2761 	 
H 	 -59.2911 	 10.8792 	 -86.6183 	 
C 	 -59.06 	 11.6319 	 -89.332 	 
H 	 -59.0872 	 12.4381 	 -90.0381 	 
H 	 -59.3034 	 10.6926 	 -89.8516 	 
C 	 -57.7002 	 11.5905 	 -88.7842 	 
H 	 -57.7092 	 10.7464 	 -88.071 	 
H 	 -56.95 	 11.2432 	 -89.5686 	 
C 	 -57.1922 	 12.811 	 -88.0599 	 
H 	 -56.8552 	 13.6377 	 -88.7237 	 
H 	 -57.9789 	 13.1947 	 -87.4644 	 
H 	 -56.3538 	 12.4973 	 -87.3923 	 
S 	 -61.4681 	 12.6501 	 -83.7137 	 
C 	 -61.6101 	 11.654 	 -82.3592 	 
C 	 -61.2029 	 10.4292 	 -82.7482 	 
C 	 -61.0058 	 10.2269 	 -84.1935 	 
C 	 -61.349 	 11.4086 	 -84.8528 	 
H 	 -61.0598 	 9.70852 	 -82.0066 	 
C 	 -60.7887 	 8.8702 	 -84.7312 	 
H 	 -60.29 	 8.34049 	 -83.8935 	 
H 	 -60.0682 	 9.04397 	 -85.509 	 
C 	 -62.0261 	 8.16403 	 -85.3762 	 
H 	 -61.7527 	 7.21989 	 -85.8624 	 
H 	 -62.3142 	 8.9061 	 -86.1556 	 
C 	 -63.201 	 7.91849 	 -84.4499 	 
H 	 -63.4762 	 8.94788 	 -84.2241 	 
H 	 -62.9009 	 7.40654 	 -83.5123 	 
H 	 -64.029 	 7.37811 	 -84.9255 	 
H 	 -61.77 	 12.7451 	 -89.5584 	 
H 	 -61.7033 	 11.9291 	 -81.3109 	 
