34

S 	 -130.405 	 30.6467 	 -19.1381 	 
C 	 -131.474 	 29.9766 	 -17.9133 	 
C 	 -132.559 	 29.3197 	 -18.5595 	 
C 	 -132.53 	 29.4646 	 -19.9268 	 
C 	 -131.407 	 30.0924 	 -20.4438 	 
H 	 -133.274 	 29.1741 	 -20.6429 	 
C 	 -133.631 	 28.527 	 -17.8721 	 
H 	 -134.585 	 28.9449 	 -18.2762 	 
H 	 -133.643 	 28.6885 	 -16.7693 	 
C 	 -133.735 	 27.0174 	 -18.2966 	 
H 	 -134.689 	 26.6519 	 -17.9743 	 
H 	 -133.795 	 26.9309 	 -19.4469 	 
C 	 -132.551 	 26.1702 	 -17.8739 	 
H 	 -132.719 	 25.1426 	 -18.1974 	 
H 	 -131.699 	 26.5832 	 -18.3118 	 
H 	 -132.289 	 26.1971 	 -16.7745 	 
S 	 -131.926 	 32.23 	 -22.1016 	 
C 	 -131.966 	 32.0001 	 -23.8027 	 
C 	 -131.483 	 30.7283 	 -24.1486 	 
C 	 -131.136 	 29.907 	 -23.0228 	 
C 	 -131.349 	 30.5606 	 -21.8371 	 
H 	 -131.434 	 30.5501 	 -25.1947 	 
C 	 -130.62 	 28.4683 	 -23.1574 	 
H 	 -130.452 	 28.0635 	 -22.1869 	 
H 	 -129.642 	 28.5982 	 -23.4672 	 
C 	 -131.375 	 27.6122 	 -24.2165 	 
H 	 -130.773 	 26.7439 	 -24.5295 	 
H 	 -131.476 	 28.166 	 -25.1224 	 
C 	 -132.863 	 27.2719 	 -23.9004 	 
H 	 -133.186 	 26.4203 	 -24.5181 	 
H 	 -133.535 	 27.9652 	 -24.1943 	 
H 	 -133.176 	 27.1531 	 -22.8335 	 
H 	 -131.301 	 29.8782 	 -16.8431 	 
H 	 -132.112 	 32.7488 	 -24.5306 	 
