34

S 	 -41.4772 	 -3.9008 	 14.3173 	 
C 	 -41.7994 	 -2.38839 	 15.2001 	 
C 	 -42.6453 	 -2.57973 	 16.2389 	 
C 	 -43.1526 	 -3.92539 	 16.2774 	 
C 	 -42.7081 	 -4.68 	 15.2146 	 
H 	 -43.8606 	 -4.32719 	 17.0036 	 
C 	 -43.0237 	 -1.512 	 17.2154 	 
H 	 -42.3982 	 -0.668182 	 16.9943 	 
H 	 -42.6815 	 -1.87908 	 18.1663 	 
C 	 -44.4875 	 -1.1538 	 17.3734 	 
H 	 -44.7976 	 -0.800148 	 16.4393 	 
H 	 -45.1844 	 -2.03711 	 17.531 	 
C 	 -44.6786 	 -0.0499917 	 18.4491 	 
H 	 -44.2824 	 -0.373112 	 19.3997 	 
H 	 -44.2091 	 0.863139 	 18.1679 	 
H 	 -45.7249 	 0.144645 	 18.6391 	 
S 	 -42.9055 	 -7.29938 	 16.1955 	 
C 	 -43.6117 	 -8.54884 	 15.2363 	 
C 	 -44.0326 	 -8.03185 	 14.0303 	 
C 	 -43.7663 	 -6.60807 	 13.8344 	 
C 	 -43.1246 	 -6.04459 	 14.9284 	 
H 	 -44.5626 	 -8.55765 	 13.2933 	 
C 	 -44.0675 	 -5.93063 	 12.4895 	 
H 	 -43.2023 	 -5.9918 	 11.8269 	 
H 	 -44.0858 	 -4.92523 	 12.7167 	 
C 	 -45.4358 	 -6.235 	 11.9068 	 
H 	 -46.2292 	 -5.70977 	 12.466 	 
H 	 -45.7232 	 -7.28456 	 11.898 	 
C 	 -45.4708 	 -5.4223 	 10.5799 	 
H 	 -44.5263 	 -5.69248 	 10.0536 	 
H 	 -45.6217 	 -4.28736 	 10.7146 	 
H 	 -46.3484 	 -5.78079 	 10.0829 	 
H 	 -41.3186 	 -1.43948 	 15.1174 	 
H 	 -43.6799 	 -9.57619 	 15.5247 	 
