34

S 	 -93.7114 	 -33.8533 	 -73.9131 	 
C 	 -93.603 	 -34.4808 	 -75.5758 	 
C 	 -92.7084 	 -33.7442 	 -76.3783 	 
C 	 -92.2644 	 -32.6439 	 -75.6075 	 
C 	 -92.8305 	 -32.4434 	 -74.3812 	 
H 	 -91.4124 	 -32.0552 	 -75.9499 	 
C 	 -92.1835 	 -34.1321 	 -77.764 	 
H 	 -91.2093 	 -34.5118 	 -77.503 	 
H 	 -92.0112 	 -33.2973 	 -78.4593 	 
C 	 -92.8701 	 -35.3479 	 -78.5815 	 
H 	 -92.3401 	 -35.4734 	 -79.6183 	 
H 	 -92.8595 	 -36.2727 	 -78.0666 	 
C 	 -94.2954 	 -35.0137 	 -79.02 	 
H 	 -94.4261 	 -34.0916 	 -79.6672 	 
H 	 -94.7487 	 -35.8605 	 -79.5789 	 
H 	 -94.8288 	 -34.7746 	 -78.1538 	 
S 	 -91.5043 	 -31.8361 	 -72.0271 	 
C 	 -91.5411 	 -30.1892 	 -71.4854 	 
C 	 -92.2347 	 -29.4257 	 -72.3064 	 
C 	 -92.7816 	 -30.0564 	 -73.4817 	 
C 	 -92.5668 	 -31.4006 	 -73.4129 	 
H 	 -92.3051 	 -28.3456 	 -72.1595 	 
C 	 -93.4595 	 -29.415 	 -74.6454 	 
H 	 -94.2287 	 -28.6837 	 -74.3958 	 
H 	 -94.114 	 -30.2162 	 -75.0631 	 
C 	 -92.5228 	 -28.8656 	 -75.7814 	 
H 	 -91.638 	 -29.5306 	 -75.828 	 
H 	 -91.9557 	 -27.9758 	 -75.5434 	 
C 	 -93.2508 	 -28.7047 	 -77.0691 	 
H 	 -94.0639 	 -27.9735 	 -76.8584 	 
H 	 -93.7134 	 -29.5144 	 -77.4794 	 
H 	 -92.6763 	 -28.2064 	 -77.8467 	 
H 	 -94.0835 	 -35.3559 	 -75.8418 	 
H 	 -91.142 	 -29.7458 	 -70.5888 	 
