34

S 	 -53.0426 	 -47.5038 	 -79.0772 	 
C 	 -53.19 	 -45.7766 	 -79.1964 	 
C 	 -51.9334 	 -45.2116 	 -79.3867 	 
C 	 -50.8465 	 -46.1717 	 -79.2951 	 
C 	 -51.2696 	 -47.4438 	 -79.2497 	 
H 	 -49.8315 	 -46.0888 	 -79.4019 	 
C 	 -51.6648 	 -43.7503 	 -79.7046 	 
H 	 -51.0467 	 -43.792 	 -80.5183 	 
H 	 -51.1542 	 -43.2553 	 -78.9838 	 
C 	 -52.8042 	 -42.8534 	 -80.0442 	 
H 	 -53.2913 	 -43.2282 	 -80.9034 	 
H 	 -53.3729 	 -42.8288 	 -79.2072 	 
C 	 -52.4286 	 -41.435 	 -80.4484 	 
H 	 -52.1557 	 -41.4161 	 -81.5031 	 
H 	 -53.2831 	 -40.804 	 -80.3968 	 
H 	 -51.6675 	 -40.8783 	 -79.8669 	 
S 	 -50.5157 	 -49.5695 	 -77.8363 	 
C 	 -49.3488 	 -50.7347 	 -78.5159 	 
C 	 -48.8026 	 -50.2088 	 -79.6863 	 
C 	 -49.5089 	 -49.074 	 -80.1486 	 
C 	 -50.4981 	 -48.6641 	 -79.3101 	 
H 	 -47.991 	 -50.6808 	 -80.1799 	 
C 	 -49.1969 	 -48.3736 	 -81.4619 	 
H 	 -50.0953 	 -47.869 	 -81.8654 	 
H 	 -48.8592 	 -49.1826 	 -82.147 	 
C 	 -48.038 	 -47.4087 	 -81.4283 	 
H 	 -48.2272 	 -46.4538 	 -80.9644 	 
H 	 -47.8303 	 -47.2707 	 -82.4869 	 
C 	 -46.7108 	 -47.9361 	 -80.8638 	 
H 	 -46.3348 	 -48.8192 	 -81.3062 	 
H 	 -46.7938 	 -48.2668 	 -79.7935 	 
H 	 -45.9929 	 -47.141 	 -81.0038 	 
H 	 -54.2052 	 -45.336 	 -79.3052 	 
H 	 -48.9498 	 -51.6424 	 -78.0826 	 
