34

S 	 -100.936 	 -2.69622 	 -105.078 	 
C 	 -100.19 	 -4.21897 	 -104.962 	 
C 	 -100.951 	 -5.21433 	 -105.566 	 
C 	 -102.066 	 -4.69767 	 -106.321 	 
C 	 -102.243 	 -3.33509 	 -106.069 	 
H 	 -102.849 	 -5.24759 	 -106.827 	 
C 	 -100.367 	 -6.64097 	 -105.682 	 
H 	 -99.767 	 -6.92813 	 -104.768 	 
H 	 -99.6109 	 -6.62129 	 -106.504 	 
C 	 -101.369 	 -7.86698 	 -105.996 	 
H 	 -101.959 	 -7.66433 	 -106.825 	 
H 	 -100.741 	 -8.75743 	 -106.139 	 
C 	 -102.306 	 -8.18575 	 -104.818 	 
H 	 -103.019 	 -9.03262 	 -104.956 	 
H 	 -101.673 	 -8.42844 	 -103.907 	 
H 	 -102.905 	 -7.29352 	 -104.633 	 
S 	 -102.724 	 -0.788106 	 -106.956 	 
C 	 -104.329 	 -0.399084 	 -107.425 	 
C 	 -105.189 	 -1.48012 	 -107.495 	 
C 	 -104.567 	 -2.6998 	 -107.005 	 
C 	 -103.232 	 -2.46584 	 -106.656 	 
H 	 -106.233 	 -1.35741 	 -107.647 	 
C 	 -105.387 	 -3.98377 	 -106.673 	 
H 	 -105.127 	 -4.22861 	 -105.668 	 
H 	 -104.861 	 -4.76505 	 -107.271 	 
C 	 -106.789 	 -3.94144 	 -107.158 	 
H 	 -106.935 	 -3.85628 	 -108.249 	 
H 	 -107.326 	 -3.15298 	 -106.694 	 
C 	 -107.405 	 -5.23788 	 -106.765 	 
H 	 -106.903 	 -5.90665 	 -107.512 	 
H 	 -108.468 	 -5.16878 	 -106.994 	 
H 	 -107.254 	 -5.56847 	 -105.694 	 
H 	 -99.157 	 -4.41499 	 -104.607 	 
H 	 -104.662 	 0.579871 	 -107.708 	 
