34

S 	 -34.4369 	 -27.3216 	 -96.1879 	 
C 	 -35.2682 	 -26.0422 	 -95.4289 	 
C 	 -35.5587 	 -26.3623 	 -94.0814 	 
C 	 -35.0334 	 -27.6701 	 -93.6716 	 
C 	 -34.1923 	 -28.2351 	 -94.6814 	 
H 	 -35.1565 	 -28.0342 	 -92.6661 	 
C 	 -36.4172 	 -25.527 	 -93.1594 	 
H 	 -36.5904 	 -24.5614 	 -93.6283 	 
H 	 -35.8157 	 -25.3675 	 -92.2859 	 
C 	 -37.8238 	 -26.0644 	 -92.8745 	 
H 	 -37.7307 	 -26.96 	 -92.1642 	 
H 	 -38.2387 	 -25.2204 	 -92.333 	 
C 	 -38.5459 	 -26.3705 	 -94.1753 	 
H 	 -39.5312 	 -26.7775 	 -93.9267 	 
H 	 -38.6573 	 -25.4059 	 -94.743 	 
H 	 -38.0912 	 -27.1041 	 -94.8246 	 
S 	 -33.7036 	 -30.6116 	 -95.8556 	 
C 	 -32.5834 	 -31.7699 	 -95.1012 	 
C 	 -32.1085 	 -31.2691 	 -93.9249 	 
C 	 -32.5996 	 -29.9403 	 -93.5897 	 
C 	 -33.4343 	 -29.4503 	 -94.5747 	 
H 	 -31.3441 	 -31.9087 	 -93.3852 	 
C 	 -32.0881 	 -29.0747 	 -92.3931 	 
H 	 -32.288 	 -28.0734 	 -92.6652 	 
H 	 -31.1031 	 -29.3806 	 -92.3544 	 
C 	 -32.8036 	 -29.4049 	 -91.0344 	 
H 	 -32.485 	 -30.3285 	 -90.5418 	 
H 	 -33.8299 	 -29.4071 	 -91.2084 	 
C 	 -32.4595 	 -28.4214 	 -89.8883 	 
H 	 -33.3087 	 -28.3499 	 -89.2129 	 
H 	 -32.3947 	 -27.3685 	 -90.2667 	 
H 	 -31.4898 	 -28.45 	 -89.3154 	 
H 	 -35.7382 	 -25.1625 	 -95.8306 	 
H 	 -32.35 	 -32.819 	 -95.4556 	 
