34

S 	 -121.396 	 52.551 	 -31.2296 	 
C 	 -121.404 	 52.2008 	 -32.9014 	 
C 	 -120.236 	 52.6185 	 -33.5164 	 
C 	 -119.408 	 53.4999 	 -32.6923 	 
C 	 -119.919 	 53.5466 	 -31.3919 	 
H 	 -118.585 	 54.0092 	 -33.0554 	 
C 	 -119.972 	 52.443 	 -34.9207 	 
H 	 -119.561 	 51.4441 	 -34.9654 	 
H 	 -119.218 	 53.1586 	 -35.3444 	 
C 	 -121.181 	 52.5444 	 -35.8313 	 
H 	 -122.053 	 52.0467 	 -35.3743 	 
H 	 -121.281 	 53.6 	 -35.8842 	 
C 	 -120.948 	 51.8046 	 -37.2259 	 
H 	 -121.819 	 51.8031 	 -37.7788 	 
H 	 -120.175 	 52.2616 	 -37.9202 	 
H 	 -120.649 	 50.7684 	 -36.9088 	 
S 	 -117.727 	 54.4733 	 -30.0841 	 
C 	 -117.817 	 55.1675 	 -28.5535 	 
C 	 -119.12 	 55.6107 	 -28.3157 	 
C 	 -120.104 	 55.1603 	 -29.3719 	 
C 	 -119.444 	 54.4071 	 -30.3423 	 
H 	 -119.423 	 56.1667 	 -27.4061 	 
C 	 -121.607 	 55.4892 	 -29.2532 	 
H 	 -121.931 	 55.3564 	 -28.2349 	 
H 	 -122.105 	 54.7297 	 -29.8191 	 
C 	 -121.883 	 56.9559 	 -29.7133 	 
H 	 -121.185 	 57.2755 	 -30.5022 	 
H 	 -121.572 	 57.5588 	 -28.8625 	 
C 	 -123.412 	 57.1301 	 -30.0577 	 
H 	 -123.665 	 58.1581 	 -30.2249 	 
H 	 -124.034 	 56.6951 	 -29.2843 	 
H 	 -123.58 	 56.611 	 -31.0061 	 
H 	 -122.194 	 51.6043 	 -33.3254 	 
H 	 -116.978 	 55.5071 	 -28.0463 	 
