34

S 	 -118.352 	 61.1091 	 -40.7405 	 
C 	 -118.372 	 60.174 	 -42.2203 	 
C 	 -117.397 	 59.1415 	 -42.1071 	 
C 	 -116.775 	 59.1572 	 -40.79 	 
C 	 -117.343 	 60.0194 	 -39.8515 	 
H 	 -116.045 	 58.4955 	 -40.4273 	 
C 	 -117.115 	 58.073 	 -43.1833 	 
H 	 -116.069 	 57.7928 	 -43.1808 	 
H 	 -117.331 	 58.5762 	 -44.0628 	 
C 	 -117.984 	 56.8021 	 -43.1069 	 
H 	 -117.532 	 56.1297 	 -43.8889 	 
H 	 -117.794 	 56.2709 	 -42.1966 	 
C 	 -119.5 	 56.9478 	 -43.1836 	 
H 	 -119.932 	 56.9795 	 -44.1814 	 
H 	 -119.809 	 56.0373 	 -42.7211 	 
H 	 -119.712 	 57.9013 	 -42.6025 	 
S 	 -116.877 	 61.708 	 -37.7055 	 
C 	 -116.158 	 60.9815 	 -36.2615 	 
C 	 -116.166 	 59.6013 	 -36.4178 	 
C 	 -116.712 	 59.0881 	 -37.64 	 
C 	 -117.006 	 60.119 	 -38.484 	 
H 	 -115.921 	 59.0323 	 -35.5688 	 
C 	 -116.825 	 57.6103 	 -37.8759 	 
H 	 -116.628 	 57.0653 	 -37.0094 	 
H 	 -116.192 	 57.2248 	 -38.6154 	 
C 	 -118.283 	 57.1174 	 -38.2223 	 
H 	 -118.692 	 57.4886 	 -39.1649 	 
H 	 -118.988 	 57.4958 	 -37.4639 	 
C 	 -118.393 	 55.5983 	 -38.3254 	 
H 	 -118.297 	 55.1472 	 -37.3698 	 
H 	 -117.628 	 55.3006 	 -39.0486 	 
H 	 -119.384 	 55.3055 	 -38.638 	 
H 	 -119.006 	 60.375 	 -43.1067 	 
H 	 -115.757 	 61.5639 	 -35.3898 	 
