34

S 	 -112.311 	 -1.22484 	 -108.677 	 
C 	 -113.299 	 -0.331674 	 -107.521 	 
C 	 -112.861 	 0.967532 	 -107.347 	 
C 	 -111.758 	 1.29154 	 -108.218 	 
C 	 -111.286 	 0.198406 	 -108.952 	 
H 	 -111.194 	 2.19883 	 -108.124 	 
C 	 -113.539 	 1.96946 	 -106.456 	 
H 	 -112.825 	 2.41392 	 -105.796 	 
H 	 -114.142 	 1.36409 	 -105.738 	 
C 	 -114.218 	 3.01996 	 -107.282 	 
H 	 -114.646 	 3.76426 	 -106.642 	 
H 	 -113.472 	 3.56393 	 -107.771 	 
C 	 -115.206 	 2.60746 	 -108.342 	 
H 	 -115.441 	 3.51516 	 -108.906 	 
H 	 -114.814 	 1.92755 	 -109.139 	 
H 	 -116.15 	 2.20421 	 -107.944 	 
S 	 -108.631 	 -0.324393 	 -109.56 	 
C 	 -108.103 	 -0.25748 	 -111.227 	 
C 	 -109.027 	 0.419114 	 -112.036 	 
C 	 -110.231 	 0.76645 	 -111.256 	 
C 	 -110.224 	 0.251131 	 -109.949 	 
H 	 -108.709 	 0.666406 	 -113.049 	 
C 	 -111.475 	 1.36222 	 -111.941 	 
H 	 -111.973 	 1.9433 	 -111.242 	 
H 	 -112.059 	 0.530668 	 -112.149 	 
C 	 -111.15 	 2.24712 	 -113.198 	 
H 	 -112.153 	 2.45525 	 -113.666 	 
H 	 -110.618 	 1.67308 	 -113.967 	 
C 	 -110.422 	 3.60561 	 -112.842 	 
H 	 -109.404 	 3.55103 	 -112.511 	 
H 	 -110.882 	 4.1532 	 -112.008 	 
H 	 -110.406 	 4.17434 	 -113.806 	 
H 	 -114.125 	 -0.839797 	 -107.13 	 
H 	 -107.071 	 -0.392116 	 -111.575 	 
