34

S 	 -103.402 	 23.1398 	 -108.985 	 
C 	 -104.052 	 21.8792 	 -110.077 	 
C 	 -104.565 	 22.4438 	 -111.225 	 
C 	 -104.475 	 23.9036 	 -111.189 	 
C 	 -103.825 	 24.4403 	 -110.108 	 
H 	 -104.877 	 24.6031 	 -111.914 	 
C 	 -105.097 	 21.688 	 -112.432 	 
H 	 -106.03 	 22.2081 	 -112.568 	 
H 	 -105.362 	 20.7062 	 -112.128 	 
C 	 -104.221 	 21.8213 	 -113.695 	 
H 	 -104.789 	 21.1548 	 -114.329 	 
H 	 -104.286 	 22.9169 	 -113.935 	 
C 	 -102.783 	 21.2051 	 -113.562 	 
H 	 -102.182 	 21.364 	 -112.712 	 
H 	 -102.903 	 20.1004 	 -113.648 	 
H 	 -102.148 	 21.4499 	 -114.448 	 
S 	 -104.314 	 26.2955 	 -108.128 	 
C 	 -104.048 	 27.9648 	 -108.434 	 
C 	 -103.651 	 28.2049 	 -109.73 	 
C 	 -103.598 	 27.0349 	 -110.522 	 
C 	 -103.8 	 25.8581 	 -109.782 	 
H 	 -103.408 	 29.1371 	 -110.088 	 
C 	 -103.307 	 27.2318 	 -112.016 	 
H 	 -103.013 	 26.3239 	 -112.447 	 
H 	 -102.479 	 27.9 	 -112.126 	 
C 	 -104.565 	 27.7673 	 -112.97 	 
H 	 -105.196 	 28.556 	 -112.502 	 
H 	 -105.407 	 27.0148 	 -112.97 	 
C 	 -104.238 	 27.9397 	 -114.426 	 
H 	 -105.063 	 28.4234 	 -114.998 	 
H 	 -103.949 	 26.949 	 -114.875 	 
H 	 -103.332 	 28.5622 	 -114.485 	 
H 	 -103.772 	 20.8315 	 -110.014 	 
H 	 -103.937 	 28.7147 	 -107.721 	 
