34

S 	 25.3857 	 -6.42621 	 -118.6 	 
C 	 25.0428 	 -6.67252 	 -120.362 	 
C 	 26.1929 	 -6.36245 	 -121.056 	 
C 	 27.351 	 -6.14342 	 -120.214 	 
C 	 27.0618 	 -6.25605 	 -118.842 	 
H 	 28.2744 	 -5.77013 	 -120.476 	 
C 	 26.2489 	 -6.27766 	 -122.582 	 
H 	 27.0673 	 -5.55852 	 -122.78 	 
H 	 25.2297 	 -5.81183 	 -122.883 	 
C 	 26.4072 	 -7.60003 	 -123.292 	 
H 	 25.6277 	 -8.28622 	 -122.805 	 
H 	 26.1515 	 -7.48893 	 -124.313 	 
C 	 27.8343 	 -8.01333 	 -123.195 	 
H 	 28.2422 	 -7.88473 	 -122.189 	 
H 	 27.9863 	 -9.04426 	 -123.574 	 
H 	 28.3971 	 -7.28979 	 -123.697 	 
S 	 27.4987 	 -4.85222 	 -116.581 	 
C 	 29.0943 	 -4.80617 	 -115.783 	 
C 	 29.9976 	 -5.51023 	 -116.535 	 
C 	 29.3679 	 -6.10228 	 -117.672 	 
C 	 28.0177 	 -5.9029 	 -117.834 	 
H 	 31.0217 	 -5.59242 	 -116.283 	 
C 	 30.1799 	 -6.88639 	 -118.605 	 
H 	 29.4252 	 -7.50687 	 -119.167 	 
H 	 30.8546 	 -7.59292 	 -118.148 	 
C 	 30.928 	 -6.05188 	 -119.619 	 
H 	 31.7145 	 -5.50585 	 -119.088 	 
H 	 30.2457 	 -5.36382 	 -120.127 	 
C 	 31.4795 	 -6.86347 	 -120.793 	 
H 	 31.8805 	 -6.30174 	 -121.692 	 
H 	 30.811 	 -7.64742 	 -121.143 	 
H 	 32.2686 	 -7.41543 	 -120.346 	 
H 	 24.0213 	 -6.74292 	 -120.678 	 
H 	 29.2296 	 -4.25071 	 -114.881 	 
