34

S 	 -64.3546 	 14.5781 	 -121.733 	 
C 	 -63.0021 	 13.5603 	 -121.34 	 
C 	 -62.8342 	 13.3962 	 -119.99 	 
C 	 -63.9281 	 13.9765 	 -119.233 	 
C 	 -64.8437 	 14.6165 	 -120.03 	 
H 	 -64.095 	 13.8523 	 -118.164 	 
C 	 -61.6539 	 12.634 	 -119.305 	 
H 	 -61.3249 	 11.907 	 -120.001 	 
H 	 -62.0248 	 12.1273 	 -118.336 	 
C 	 -60.3778 	 13.4614 	 -119.06 	 
H 	 -60.0362 	 13.827 	 -120.014 	 
H 	 -60.5387 	 14.392 	 -118.488 	 
C 	 -59.3056 	 12.7074 	 -118.385 	 
H 	 -58.9526 	 11.8371 	 -119.058 	 
H 	 -58.3925 	 13.2988 	 -118.233 	 
H 	 -59.7205 	 12.2058 	 -117.441 	 
S 	 -67.5334 	 15.2101 	 -120.553 	 
C 	 -68.4878 	 16.0741 	 -119.32 	 
C 	 -67.7464 	 16.2075 	 -118.157 	 
C 	 -66.3539 	 15.8645 	 -118.36 	 
C 	 -66.0977 	 15.2601 	 -119.588 	 
H 	 -68.253 	 16.631 	 -117.318 	 
C 	 -65.4489 	 16.0832 	 -117.187 	 
H 	 -65.5502 	 17.1065 	 -116.712 	 
H 	 -64.4899 	 16.1519 	 -117.676 	 
C 	 -65.5117 	 15.067 	 -116.066 	 
H 	 -65.0815 	 14.104 	 -116.307 	 
H 	 -66.563 	 14.8504 	 -115.843 	 
C 	 -64.9121 	 15.598 	 -114.808 	 
H 	 -65.4032 	 16.4748 	 -114.424 	 
H 	 -63.8341 	 15.7788 	 -114.926 	 
H 	 -64.998 	 14.8868 	 -113.952 	 
H 	 -62.4024 	 12.9843 	 -122.011 	 
H 	 -69.5601 	 16.3464 	 -119.433 	 
