34

S 	 -98.6213 	 2.84603 	 -118.719 	 
C 	 -99.7435 	 3.07779 	 -120.046 	 
C 	 -101.062 	 2.94431 	 -119.733 	 
C 	 -101.183 	 2.79542 	 -118.287 	 
C 	 -99.9615 	 2.77148 	 -117.614 	 
H 	 -102.053 	 2.7644 	 -117.676 	 
C 	 -102.195 	 3.17446 	 -120.695 	 
H 	 -101.965 	 2.73914 	 -121.661 	 
H 	 -102.434 	 4.17248 	 -120.993 	 
C 	 -103.502 	 2.40156 	 -120.367 	 
H 	 -104.01 	 2.94195 	 -119.552 	 
H 	 -104.204 	 2.55658 	 -121.195 	 
C 	 -103.412 	 0.845752 	 -120.057 	 
H 	 -103.395 	 0.228465 	 -120.933 	 
H 	 -102.542 	 0.647045 	 -119.501 	 
H 	 -104.325 	 0.633075 	 -119.545 	 
S 	 -98.2964 	 3.52463 	 -115.451 	 
C 	 -98.7647 	 3.0802 	 -113.852 	 
C 	 -99.8994 	 2.24999 	 -113.849 	 
C 	 -100.549 	 2.15487 	 -115.152 	 
C 	 -99.8039 	 2.75239 	 -116.144 	 
H 	 -100.293 	 1.83806 	 -112.949 	 
C 	 -101.753 	 1.25444 	 -115.396 	 
H 	 -101.57 	 0.357001 	 -114.765 	 
H 	 -101.726 	 0.861766 	 -116.343 	 
C 	 -103.2 	 1.78916 	 -115.105 	 
H 	 -103.125 	 2.82108 	 -115.155 	 
H 	 -103.485 	 1.6175 	 -114.061 	 
C 	 -104.274 	 1.36563 	 -116.048 	 
H 	 -104.125 	 1.61902 	 -117.11 	 
H 	 -105.207 	 1.87157 	 -115.736 	 
H 	 -104.417 	 0.29749 	 -116.045 	 
H 	 -99.4088 	 3.42659 	 -120.963 	 
H 	 -98.201 	 3.24926 	 -112.975 	 
