34

S 	 -68.3953 	 -43.5596 	 -90.5179 	 
C 	 -66.7433 	 -43.4362 	 -89.9758 	 
C 	 -66.424 	 -44.4596 	 -89.0917 	 
C 	 -67.5049 	 -45.3889 	 -88.8914 	 
C 	 -68.616 	 -45.0916 	 -89.7202 	 
H 	 -67.4182 	 -46.267 	 -88.3575 	 
C 	 -65.1257 	 -44.4671 	 -88.2662 	 
H 	 -64.7322 	 -43.5024 	 -88.4958 	 
H 	 -64.6167 	 -45.1753 	 -88.8319 	 
C 	 -65.1643 	 -44.5714 	 -86.7456 	 
H 	 -64.1579 	 -44.2172 	 -86.3732 	 
H 	 -65.9078 	 -43.9114 	 -86.2758 	 
C 	 -65.5733 	 -45.9636 	 -86.1399 	 
H 	 -66.6301 	 -46.1534 	 -86.0539 	 
H 	 -65.1881 	 -46.8141 	 -86.6925 	 
H 	 -65.2301 	 -46.1105 	 -85.1406 	 
S 	 -71.1791 	 -45.4341 	 -88.9253 	 
C 	 -71.9647 	 -46.9772 	 -89.2391 	 
C 	 -71.2255 	 -47.7396 	 -90.0292 	 
C 	 -69.9574 	 -47.1492 	 -90.4325 	 
C 	 -69.7693 	 -45.8891 	 -89.8317 	 
H 	 -71.6876 	 -48.6498 	 -90.326 	 
C 	 -68.9653 	 -48.0708 	 -91.1133 	 
H 	 -68.9059 	 -48.9579 	 -90.5064 	 
H 	 -67.9834 	 -47.6006 	 -91.0659 	 
C 	 -69.214 	 -48.4424 	 -92.5382 	 
H 	 -68.2491 	 -48.842 	 -93.0033 	 
H 	 -69.519 	 -47.5425 	 -93.0607 	 
C 	 -70.2001 	 -49.5444 	 -92.7812 	 
H 	 -69.6757 	 -50.4963 	 -92.8026 	 
H 	 -70.7323 	 -49.4373 	 -93.7525 	 
H 	 -71.1034 	 -49.6071 	 -92.1291 	 
H 	 -66.0724 	 -42.7066 	 -90.3043 	 
H 	 -72.8932 	 -47.4035 	 -88.9466 	 
