34

S 	 -124.047 	 64.2413 	 -43.5455 	 
C 	 -122.791 	 63.9066 	 -44.7409 	 
C 	 -121.807 	 64.8738 	 -44.6739 	 
C 	 -121.993 	 65.7181 	 -43.5264 	 
C 	 -123.202 	 65.5669 	 -42.8073 	 
H 	 -121.249 	 66.46 	 -43.2404 	 
C 	 -120.583 	 64.9962 	 -45.5147 	 
H 	 -120.233 	 63.963 	 -45.661 	 
H 	 -119.831 	 65.4557 	 -44.9049 	 
C 	 -120.593 	 65.5842 	 -46.9835 	 
H 	 -119.566 	 65.4797 	 -47.4173 	 
H 	 -121.197 	 64.93 	 -47.6291 	 
C 	 -121.003 	 67.03 	 -47.0262 	 
H 	 -121.316 	 67.297 	 -48.0612 	 
H 	 -121.99 	 67.1676 	 -46.5882 	 
H 	 -120.309 	 67.777 	 -46.6464 	 
S 	 -123.821 	 65.0959 	 -40.2489 	 
C 	 -124.326 	 66.4152 	 -39.2711 	 
C 	 -123.914 	 67.5715 	 -39.7723 	 
C 	 -123.424 	 67.4976 	 -41.1059 	 
C 	 -123.513 	 66.2218 	 -41.5755 	 
H 	 -123.971 	 68.4017 	 -39.0642 	 
C 	 -123.129 	 68.8561 	 -41.7974 	 
H 	 -122.355 	 68.7868 	 -42.5494 	 
H 	 -122.826 	 69.5064 	 -40.9666 	 
C 	 -124.338 	 69.5539 	 -42.5358 	 
H 	 -125.158 	 69.6845 	 -41.8307 	 
H 	 -124.761 	 68.982 	 -43.3752 	 
C 	 -123.943 	 70.9323 	 -43.1149 	 
H 	 -123.223 	 70.7881 	 -43.9095 	 
H 	 -123.695 	 71.6294 	 -42.262 	 
H 	 -124.859 	 71.3085 	 -43.5548 	 
H 	 -122.792 	 62.9716 	 -45.3299 	 
H 	 -124.676 	 66.2982 	 -38.2451 	 
