34

S 	 -4.33575 	 -19.0085 	 -104.941 	 
C 	 -4.124 	 -20.1658 	 -103.633 	 
C 	 -4.27572 	 -19.5381 	 -102.415 	 
C 	 -4.56692 	 -18.1696 	 -102.531 	 
C 	 -4.5671 	 -17.6615 	 -103.842 	 
H 	 -4.77524 	 -17.4993 	 -101.724 	 
C 	 -4.27087 	 -20.3657 	 -101.129 	 
H 	 -5.03981 	 -21.1532 	 -101.149 	 
H 	 -4.42645 	 -19.6394 	 -100.381 	 
C 	 -2.86667 	 -20.9488 	 -100.717 	 
H 	 -2.50333 	 -21.6738 	 -101.436 	 
H 	 -2.1488 	 -20.1 	 -100.822 	 
C 	 -2.91519 	 -21.4056 	 -99.2245 	 
H 	 -1.87004 	 -21.5352 	 -98.8999 	 
H 	 -3.43902 	 -20.7388 	 -98.5868 	 
H 	 -3.42374 	 -22.3599 	 -99.1501 	 
S 	 -3.41861 	 -15.5592 	 -105.104 	 
C 	 -4.33727 	 -14.1217 	 -105.345 	 
C 	 -5.5888 	 -14.2179 	 -104.786 	 
C 	 -5.8115 	 -15.4408 	 -104.106 	 
C 	 -4.77111 	 -16.3124 	 -104.319 	 
H 	 -6.22646 	 -13.3426 	 -104.762 	 
C 	 -7.09335 	 -15.6719 	 -103.264 	 
H 	 -7.27405 	 -16.7453 	 -103.306 	 
H 	 -8.01682 	 -15.1933 	 -103.701 	 
C 	 -7.01893 	 -15.4557 	 -101.798 	 
H 	 -6.4337 	 -16.2112 	 -101.292 	 
H 	 -8.03499 	 -15.5313 	 -101.485 	 
C 	 -6.6048 	 -14.012 	 -101.398 	 
H 	 -5.57903 	 -13.7537 	 -101.648 	 
H 	 -6.75257 	 -13.8422 	 -100.352 	 
H 	 -7.28298 	 -13.3814 	 -101.951 	 
H 	 -3.91747 	 -21.2079 	 -103.693 	 
H 	 -4.03602 	 -13.1406 	 -105.726 	 
