34

S 	 -34.8236 	 -33.5977 	 -91.0652 	 
C 	 -35.9065 	 -34.1919 	 -89.8838 	 
C 	 -35.4688 	 -34.0717 	 -88.5896 	 
C 	 -34.1982 	 -33.4359 	 -88.5169 	 
C 	 -33.6521 	 -33.2038 	 -89.7874 	 
H 	 -33.6912 	 -33.3032 	 -87.6002 	 
C 	 -36.1377 	 -34.384 	 -87.3149 	 
H 	 -35.5495 	 -34.2122 	 -86.4332 	 
H 	 -36.1662 	 -35.4383 	 -87.2768 	 
C 	 -37.5394 	 -33.8177 	 -87.1485 	 
H 	 -38.2884 	 -34.2765 	 -87.7929 	 
H 	 -37.9339 	 -34.1977 	 -86.154 	 
C 	 -37.6451 	 -32.3054 	 -87.0848 	 
H 	 -37.4982 	 -31.8468 	 -88.052 	 
H 	 -38.6391 	 -32.0794 	 -86.8476 	 
H 	 -37.0389 	 -31.9446 	 -86.3012 	 
S 	 -31.1213 	 -34.2721 	 -90.0753 	 
C 	 -29.7499 	 -33.1782 	 -89.935 	 
C 	 -30.1316 	 -31.8801 	 -89.8116 	 
C 	 -31.5418 	 -31.6999 	 -89.8809 	 
C 	 -32.2439 	 -32.874 	 -90.0434 	 
H 	 -29.3572 	 -31.1153 	 -89.73 	 
C 	 -32.1776 	 -30.3501 	 -89.8666 	 
H 	 -33.2183 	 -30.537 	 -89.654 	 
H 	 -32.2398 	 -29.9373 	 -90.9152 	 
C 	 -31.4985 	 -29.3734 	 -88.801 	 
H 	 -30.7376 	 -28.7004 	 -89.3134 	 
H 	 -31.0122 	 -29.9532 	 -88.0649 	 
C 	 -32.6252 	 -28.4628 	 -88.2245 	 
H 	 -33.2331 	 -29.0198 	 -87.4698 	 
H 	 -33.3046 	 -28.0215 	 -89.0134 	 
H 	 -32.0901 	 -27.6295 	 -87.6418 	 
H 	 -36.8437 	 -34.771 	 -89.9972 	 
H 	 -28.7399 	 -33.4974 	 -89.8489 	 
