34

S 	 -58.4276 	 9.66677 	 -84.7091 	 
C 	 -59.643 	 10.1737 	 -85.7967 	 
C 	 -60.1723 	 11.4001 	 -85.4479 	 
C 	 -59.6814 	 11.7888 	 -84.174 	 
C 	 -58.6148 	 11.0053 	 -83.6649 	 
H 	 -59.8867 	 12.6468 	 -83.6203 	 
C 	 -61.2446 	 12.1899 	 -86.1512 	 
H 	 -61.251 	 13.1336 	 -85.6955 	 
H 	 -62.203 	 11.7898 	 -85.8135 	 
C 	 -60.9854 	 12.3858 	 -87.6731 	 
H 	 -61.0787 	 11.3972 	 -88.1386 	 
H 	 -61.8709 	 12.9444 	 -87.9987 	 
C 	 -59.7203 	 13.1201 	 -88.1871 	 
H 	 -59.6774 	 12.9613 	 -89.2934 	 
H 	 -59.9072 	 14.1587 	 -88.0185 	 
H 	 -58.72 	 12.8486 	 -87.7612 	 
S 	 -57.5905 	 12.9708 	 -82.1278 	 
C 	 -56.7335 	 12.5258 	 -80.6769 	 
C 	 -56.9124 	 11.1742 	 -80.3825 	 
C 	 -57.6337 	 10.468 	 -81.4117 	 
C 	 -57.9182 	 11.3139 	 -82.4277 	 
H 	 -56.5075 	 10.8148 	 -79.4952 	 
C 	 -57.9911 	 9.02157 	 -81.2308 	 
H 	 -57.4893 	 8.66969 	 -80.2871 	 
H 	 -57.6571 	 8.38519 	 -82.1098 	 
C 	 -59.5469 	 8.81342 	 -81.1018 	 
H 	 -59.7683 	 7.73843 	 -80.9696 	 
H 	 -60.0454 	 9.08479 	 -82.1042 	 
C 	 -60.2371 	 9.60788 	 -79.9522 	 
H 	 -61.3345 	 9.43779 	 -79.7884 	 
H 	 -59.9622 	 10.6033 	 -79.9697 	 
H 	 -59.7864 	 9.1509 	 -79.0551 	 
H 	 -60.1005 	 9.5596 	 -86.5826 	 
H 	 -56.407 	 13.2873 	 -79.9374 	 
