34

S 	 -58.8656 	 13.9305 	 -89.2027 	 
C 	 -58.3008 	 15.0694 	 -90.4314 	 
C 	 -58.3837 	 16.3185 	 -89.9335 	 
C 	 -58.6749 	 16.328 	 -88.5535 	 
C 	 -58.7775 	 15.1043 	 -87.9863 	 
H 	 -58.8472 	 17.1432 	 -87.8603 	 
C 	 -58.165 	 17.4774 	 -90.8788 	 
H 	 -58.3751 	 17.0611 	 -91.8307 	 
H 	 -57.1472 	 17.843 	 -90.7115 	 
C 	 -59.2311 	 18.582 	 -90.7108 	 
H 	 -59.1829 	 18.7842 	 -89.6843 	 
H 	 -58.9815 	 19.4695 	 -91.259 	 
C 	 -60.6093 	 18.0993 	 -91.0426 	 
H 	 -60.7209 	 17.776 	 -92.0741 	 
H 	 -60.8171 	 17.1763 	 -90.4344 	 
H 	 -61.3341 	 18.9225 	 -90.7511 	 
S 	 -60.3961 	 13.9535 	 -85.8991 	 
C 	 -60.0005 	 14.3929 	 -84.2538 	 
C 	 -58.8598 	 15.1633 	 -84.266 	 
C 	 -58.2655 	 15.3829 	 -85.5007 	 
C 	 -58.9626 	 14.8076 	 -86.5267 	 
H 	 -58.5976 	 15.4913 	 -83.2644 	 
C 	 -57.0081 	 16.326 	 -85.5475 	 
H 	 -57.2574 	 17.4165 	 -85.6268 	 
H 	 -56.483 	 16.0961 	 -86.4792 	 
C 	 -55.9385 	 16.1788 	 -84.5421 	 
H 	 -55.5962 	 15.1791 	 -84.4627 	 
H 	 -56.1711 	 16.3772 	 -83.4919 	 
C 	 -54.703 	 17.126 	 -84.8437 	 
H 	 -54.0293 	 17.2161 	 -83.9737 	 
H 	 -54.9813 	 18.1513 	 -85.111 	 
H 	 -54.0286 	 16.6914 	 -85.6299 	 
H 	 -58.1213 	 14.8703 	 -91.4598 	 
H 	 -60.6651 	 14.217 	 -83.4157 	 
