34

S 	 -143.422 	 13.6305 	 -4.89758 	 
C 	 -143.335 	 14.2297 	 -6.4541 	 
C 	 -143.615 	 13.2308 	 -7.40392 	 
C 	 -143.908 	 11.9761 	 -6.84006 	 
C 	 -143.962 	 12.0259 	 -5.46458 	 
H 	 -144.108 	 11.0924 	 -7.41285 	 
C 	 -143.517 	 13.3645 	 -8.92841 	 
H 	 -143.336 	 14.3873 	 -9.27333 	 
H 	 -144.511 	 13.0991 	 -9.2707 	 
C 	 -142.358 	 12.5113 	 -9.52091 	 
H 	 -141.408 	 12.7799 	 -9.03459 	 
H 	 -142.546 	 11.4753 	 -9.40089 	 
C 	 -142.06 	 12.7151 	 -11.0148 	 
H 	 -141.442 	 13.5929 	 -11.1555 	 
H 	 -141.403 	 11.9416 	 -11.3284 	 
H 	 -142.897 	 12.8271 	 -11.6108 	 
S 	 -143.271 	 10.4253 	 -3.31934 	 
C 	 -144.517 	 9.22206 	 -2.74841 	 
C 	 -145.637 	 9.26443 	 -3.48838 	 
C 	 -145.593 	 10.201 	 -4.57072 	 
C 	 -144.442 	 11.0012 	 -4.56522 	 
H 	 -146.495 	 8.67121 	 -3.23948 	 
C 	 -146.811 	 10.3441 	 -5.49322 	 
H 	 -147.239 	 11.275 	 -5.5756 	 
H 	 -147.573 	 9.85974 	 -4.90151 	 
C 	 -146.789 	 9.45391 	 -6.68903 	 
H 	 -146.397 	 8.49156 	 -6.39888 	 
H 	 -145.985 	 9.74022 	 -7.49521 	 
C 	 -148.055 	 9.43999 	 -7.46442 	 
H 	 -148.355 	 10.4155 	 -7.84801 	 
H 	 -148.926 	 9.05744 	 -6.91988 	 
H 	 -147.882 	 8.78958 	 -8.3215 	 
H 	 -143.125 	 15.2284 	 -6.74849 	 
H 	 -144.412 	 8.5565 	 -1.92804 	 
