34

S 	 -92.6584 	 -25.9575 	 -67.7215 	 
C 	 -94.4133 	 -26.1117 	 -67.8011 	 
C 	 -94.9142 	 -26.4621 	 -66.5426 	 
C 	 -93.9528 	 -26.7499 	 -65.6395 	 
C 	 -92.6406 	 -26.5079 	 -66.0868 	 
H 	 -94.0637 	 -27.1141 	 -64.571 	 
C 	 -96.3406 	 -26.7221 	 -66.196 	 
H 	 -96.4374 	 -27.1037 	 -65.1952 	 
H 	 -96.73 	 -27.3302 	 -67.0023 	 
C 	 -97.3574 	 -25.5606 	 -66.4025 	 
H 	 -97.5271 	 -25.2426 	 -67.4169 	 
H 	 -98.3329 	 -25.8837 	 -66.0564 	 
C 	 -96.9204 	 -24.3487 	 -65.5327 	 
H 	 -97.643 	 -23.5776 	 -65.8243 	 
H 	 -96.918 	 -24.5506 	 -64.4793 	 
H 	 -96.0203 	 -24.0792 	 -66.0778 	 
S 	 -90.4617 	 -28.1277 	 -65.6488 	 
C 	 -89.2102 	 -27.6717 	 -64.5533 	 
C 	 -89.551 	 -26.4978 	 -63.8734 	 
C 	 -90.8508 	 -26.0202 	 -64.2539 	 
C 	 -91.3919 	 -26.6586 	 -65.38 	 
H 	 -88.8691 	 -26.2044 	 -63.0466 	 
C 	 -91.3759 	 -24.8627 	 -63.5322 	 
H 	 -92.1558 	 -24.2557 	 -64.117 	 
H 	 -90.5233 	 -24.2191 	 -63.351 	 
C 	 -91.9715 	 -25.1643 	 -62.1008 	 
H 	 -91.1142 	 -25.5026 	 -61.398 	 
H 	 -92.6694 	 -25.9819 	 -61.9684 	 
C 	 -92.4606 	 -23.876 	 -61.5723 	 
H 	 -93.33 	 -23.4615 	 -62.126 	 
H 	 -91.6946 	 -23.0825 	 -61.5411 	 
H 	 -92.8835 	 -23.9787 	 -60.5834 	 
H 	 -95.0493 	 -25.8947 	 -68.6447 	 
H 	 -88.2669 	 -28.1925 	 -64.4313 	 
