34

S 	 -39.7346 	 19.1866 	 -97.5172 	 
C 	 -38.1969 	 18.469 	 -97.7979 	 
C 	 -38.1218 	 17.2139 	 -97.2262 	 
C 	 -39.1719 	 16.924 	 -96.362 	 
C 	 -40.1998 	 17.8474 	 -96.4535 	 
H 	 -39.2488 	 16.0495 	 -95.807 	 
C 	 -37.0117 	 16.1806 	 -97.4998 	 
H 	 -36.856 	 15.572 	 -96.5994 	 
H 	 -36.0792 	 16.7075 	 -97.6122 	 
C 	 -37.1779 	 15.2866 	 -98.6627 	 
H 	 -37.0426 	 15.9594 	 -99.4862 	 
H 	 -36.3344 	 14.5541 	 -98.8009 	 
C 	 -38.5269 	 14.6214 	 -98.8023 	 
H 	 -38.6485 	 14.1215 	 -99.7611 	 
H 	 -38.527 	 13.8213 	 -98.0899 	 
H 	 -39.4369 	 15.2046 	 -98.5782 	 
S 	 -41.7827 	 19.4005 	 -94.8334 	 
C 	 -42.9987 	 18.611 	 -93.8551 	 
C 	 -42.9706 	 17.2906 	 -93.9857 	 
C 	 -42.1152 	 16.836 	 -95.0699 	 
C 	 -41.3472 	 17.861 	 -95.6043 	 
H 	 -43.5708 	 16.715 	 -93.2292 	 
C 	 -41.9355 	 15.337 	 -95.2538 	 
H 	 -41.4257 	 14.8454 	 -94.4182 	 
H 	 -41.266 	 15.2944 	 -96.069 	 
C 	 -43.1573 	 14.5225 	 -95.5054 	 
H 	 -43.724 	 14.964 	 -96.3182 	 
H 	 -43.719 	 14.6499 	 -94.5634 	 
C 	 -42.7866 	 13.0199 	 -95.6868 	 
H 	 -43.693 	 12.543 	 -95.9586 	 
H 	 -42.2911 	 12.4669 	 -94.9684 	 
H 	 -41.9978 	 12.9552 	 -96.504 	 
H 	 -37.377 	 18.803 	 -98.4564 	 
H 	 -43.604 	 19.163 	 -93.1251 	 
