34

S 	 -59.2128 	 -2.16904 	 -20.1702 	 
C 	 -59.0011 	 -1.6805 	 -18.431 	 
C 	 -58.6347 	 -2.7501 	 -17.6752 	 
C 	 -58.519 	 -3.96653 	 -18.4664 	 
C 	 -58.6354 	 -3.80213 	 -19.8487 	 
H 	 -58.194 	 -4.92689 	 -18.0298 	 
C 	 -58.351 	 -2.77712 	 -16.1538 	 
H 	 -59.1296 	 -3.11882 	 -15.5112 	 
H 	 -58.0495 	 -1.77386 	 -15.7944 	 
C 	 -57.0715 	 -3.58272 	 -15.9759 	 
H 	 -57.2359 	 -4.60851 	 -16.2654 	 
H 	 -56.3662 	 -3.42451 	 -16.7588 	 
C 	 -56.4412 	 -3.45765 	 -14.5632 	 
H 	 -55.4879 	 -3.89953 	 -14.5882 	 
H 	 -56.373 	 -2.40413 	 -14.2201 	 
H 	 -56.916 	 -4.08705 	 -13.8327 	 
S 	 -57.1442 	 -5.95887 	 -20.518 	 
C 	 -57.6302 	 -7.05676 	 -21.79 	 
C 	 -58.6367 	 -6.49393 	 -22.534 	 
C 	 -59.0825 	 -5.22505 	 -21.9775 	 
C 	 -58.3876 	 -4.83033 	 -20.886 	 
H 	 -59.049 	 -6.90335 	 -23.4257 	 
C 	 -60.2212 	 -4.42652 	 -22.5297 	 
H 	 -60.4352 	 -4.8308 	 -23.5173 	 
H 	 -59.9537 	 -3.37853 	 -22.6296 	 
C 	 -61.5399 	 -4.45749 	 -21.7542 	 
H 	 -62.2362 	 -3.77266 	 -22.0909 	 
H 	 -61.3446 	 -4.01722 	 -20.719 	 
C 	 -62.0294 	 -5.92597 	 -21.5653 	 
H 	 -62.9425 	 -5.84097 	 -20.9105 	 
H 	 -61.3682 	 -6.57446 	 -21.0074 	 
H 	 -62.2428 	 -6.44406 	 -22.4865 	 
H 	 -59.1804 	 -0.720507 	 -18.0186 	 
H 	 -57.1594 	 -7.98693 	 -21.9979 	 
