34

S 	 -53.1951 	 12.0002 	 22.8957 	 
C 	 -54.2533 	 11.4364 	 21.7061 	 
C 	 -54.9867 	 10.3557 	 22.134 	 
C 	 -54.5812 	 9.91914 	 23.451 	 
C 	 -53.6054 	 10.6916 	 24.0091 	 
H 	 -55.0131 	 9.03858 	 23.9385 	 
C 	 -56.1564 	 9.73937 	 21.2785 	 
H 	 -56.7526 	 8.94527 	 21.8323 	 
H 	 -55.7373 	 9.23451 	 20.4352 	 
C 	 -57.2262 	 10.7203 	 20.7486 	 
H 	 -57.6103 	 11.2644 	 21.554 	 
H 	 -56.7355 	 11.4865 	 20.1185 	 
C 	 -58.389 	 9.98622 	 20.0196 	 
H 	 -58.8751 	 9.36811 	 20.7676 	 
H 	 -59.094 	 10.5839 	 19.5065 	 
H 	 -58.0519 	 9.22329 	 19.2055 	 
S 	 -53.5188 	 10.3366 	 26.7955 	 
C 	 -52.0461 	 10.1742 	 27.596 	 
C 	 -51.0183 	 10.1392 	 26.6696 	 
C 	 -51.4023 	 10.3589 	 25.3185 	 
C 	 -52.8143 	 10.5532 	 25.2078 	 
H 	 -49.982 	 10.0058 	 27.0678 	 
C 	 -50.4217 	 10.2296 	 24.1797 	 
H 	 -49.4256 	 10.3725 	 24.631 	 
H 	 -50.4802 	 11.1009 	 23.5104 	 
C 	 -50.3989 	 8.87828 	 23.3813 	 
H 	 -49.5549 	 8.99346 	 22.7175 	 
H 	 -51.2536 	 8.65689 	 22.804 	 
C 	 -50.1689 	 7.67286 	 24.2375 	 
H 	 -51.1657 	 7.37261 	 24.5319 	 
H 	 -49.6416 	 8.00081 	 25.0901 	 
H 	 -49.8451 	 6.83625 	 23.6751 	 
H 	 -54.3743 	 11.7469 	 20.6737 	 
H 	 -51.8739 	 10.1337 	 28.6279 	 
