34

S 	 -72.9356 	 -44.3337 	 -93.958 	 
C 	 -73.0982 	 -42.5665 	 -94.042 	 
C 	 -72.9508 	 -42.082 	 -95.3276 	 
C 	 -73.0997 	 -43.0668 	 -96.309 	 
C 	 -73.2254 	 -44.2935 	 -95.7269 	 
H 	 -73.2429 	 -42.9829 	 -97.3547 	 
C 	 -72.8273 	 -40.5894 	 -95.6549 	 
H 	 -73.365 	 -40.0979 	 -94.8389 	 
H 	 -73.3225 	 -40.2994 	 -96.5976 	 
C 	 -71.4114 	 -40.1948 	 -95.5643 	 
H 	 -71.4044 	 -39.1478 	 -95.7543 	 
H 	 -71.0238 	 -40.3122 	 -94.5302 	 
C 	 -70.5229 	 -40.8808 	 -96.6134 	 
H 	 -69.5485 	 -40.3873 	 -96.6276 	 
H 	 -70.395 	 -41.96 	 -96.4235 	 
H 	 -70.8777 	 -40.6264 	 -97.646 	 
S 	 -71.9135 	 -46.5865 	 -96.6212 	 
C 	 -72.8099 	 -47.7154 	 -97.5653 	 
C 	 -74.1088 	 -47.322 	 -97.857 	 
C 	 -74.3944 	 -46.0761 	 -97.1806 	 
C 	 -73.3179 	 -45.5091 	 -96.5398 	 
H 	 -74.7067 	 -47.9799 	 -98.4384 	 
C 	 -75.7718 	 -45.4241 	 -97.3152 	 
H 	 -76.2672 	 -45.9295 	 -98.1101 	 
H 	 -75.5623 	 -44.383 	 -97.6329 	 
C 	 -76.6561 	 -45.4303 	 -96.0371 	 
H 	 -77.614 	 -45.0549 	 -96.4411 	 
H 	 -76.3855 	 -44.8323 	 -95.1315 	 
C 	 -77.0048 	 -46.8625 	 -95.6408 	 
H 	 -76.1483 	 -47.4113 	 -95.1877 	 
H 	 -77.4656 	 -47.3914 	 -96.4549 	 
H 	 -77.779 	 -46.9467 	 -94.861 	 
H 	 -73.0643 	 -41.931 	 -93.1856 	 
H 	 -72.5511 	 -48.7788 	 -97.7808 	 
