34

S 	 -98.6153 	 13.6408 	 -118.508 	 
C 	 -99.025 	 15.2363 	 -117.866 	 
C 	 -99.1485 	 16.1977 	 -118.876 	 
C 	 -99.0036 	 15.5977 	 -120.176 	 
C 	 -98.8474 	 14.2278 	 -120.159 	 
H 	 -99.2417 	 16.1061 	 -121.092 	 
C 	 -99.3393 	 17.6808 	 -118.608 	 
H 	 -99.9533 	 17.6966 	 -117.804 	 
H 	 -99.8459 	 18.2664 	 -119.37 	 
C 	 -98.0396 	 18.3517 	 -118.331 	 
H 	 -97.4464 	 17.8454 	 -117.509 	 
H 	 -97.4321 	 18.3802 	 -119.258 	 
C 	 -98.2733 	 19.849 	 -118.034 	 
H 	 -97.2748 	 20.3603 	 -118.105 	 
H 	 -98.9405 	 20.3536 	 -118.746 	 
H 	 -98.7261 	 19.9834 	 -117.035 	 
S 	 -99.7461 	 11.8151 	 -121.215 	 
C 	 -99.2018 	 11.3467 	 -122.833 	 
C 	 -98.2055 	 12.197 	 -123.239 	 
C 	 -98.004 	 13.3053 	 -122.452 	 
C 	 -98.8032 	 13.3091 	 -121.3 	 
H 	 -97.7074 	 11.9531 	 -124.14 	 
C 	 -96.9138 	 14.4054 	 -122.668 	 
H 	 -96.0707 	 13.9211 	 -123.122 	 
H 	 -96.5728 	 14.915 	 -121.79 	 
C 	 -97.2991 	 15.6156 	 -123.486 	 
H 	 -98.3738 	 15.8761 	 -123.286 	 
H 	 -97.3293 	 15.3359 	 -124.527 	 
C 	 -96.3707 	 16.7879 	 -123.284 	 
H 	 -96.3773 	 17.2911 	 -122.322 	 
H 	 -96.646 	 17.5949 	 -123.874 	 
H 	 -95.3582 	 16.4179 	 -123.504 	 
H 	 -99.0787 	 15.5944 	 -116.869 	 
H 	 -99.7135 	 10.58 	 -123.38 	 
