34

S 	 -91.1725 	 -39.2544 	 -61.4868 	 
C 	 -91.0904 	 -40.8805 	 -61.9865 	 
C 	 -91.134 	 -41.71 	 -60.8432 	 
C 	 -91.576 	 -41.0076 	 -59.6865 	 
C 	 -91.6584 	 -39.6637 	 -59.8453 	 
H 	 -91.6583 	 -41.4565 	 -58.6517 	 
C 	 -90.9322 	 -43.1614 	 -60.7965 	 
H 	 -90.3916 	 -43.382 	 -59.8427 	 
H 	 -90.3281 	 -43.4316 	 -61.6141 	 
C 	 -92.2686 	 -43.8614 	 -60.9283 	 
H 	 -93.1363 	 -43.2653 	 -60.649 	 
H 	 -92.4069 	 -43.9675 	 -61.9938 	 
C 	 -92.4655 	 -45.219 	 -60.2037 	 
H 	 -92.6267 	 -45.1234 	 -59.1645 	 
H 	 -93.2974 	 -45.7671 	 -60.5281 	 
H 	 -91.6116 	 -45.8505 	 -60.4909 	 
S 	 -90.8713 	 -37.6637 	 -58.0629 	 
C 	 -92.0593 	 -36.9596 	 -57.0657 	 
C 	 -93.2587 	 -37.581 	 -57.2183 	 
C 	 -93.2507 	 -38.7033 	 -58.1 	 
C 	 -92.0756 	 -38.6791 	 -58.8354 	 
H 	 -94.1088 	 -37.1887 	 -56.6246 	 
C 	 -94.4444 	 -39.6334 	 -58.3379 	 
H 	 -94.1175 	 -40.5176 	 -58.9208 	 
H 	 -95.2279 	 -39.0837 	 -58.8661 	 
C 	 -94.8805 	 -40.2936 	 -56.9931 	 
H 	 -95.7276 	 -40.9163 	 -57.2556 	 
H 	 -95.3448 	 -39.4786 	 -56.5145 	 
C 	 -93.9039 	 -41.0362 	 -56.1422 	 
H 	 -93.5131 	 -41.9369 	 -56.5906 	 
H 	 -94.1275 	 -41.1769 	 -55.0586 	 
H 	 -93.0389 	 -40.4414 	 -56.1034 	 
H 	 -90.6237 	 -41.33 	 -62.9035 	 
H 	 -92.0257 	 -36.1495 	 -56.4429 	 
