34

S 	 -52.6496 	 12.6681 	 25.4352 	 
C 	 -54.0773 	 12.7921 	 24.3644 	 
C 	 -54.8405 	 13.8512 	 24.7128 	 
C 	 -54.2339 	 14.687 	 25.6885 	 
C 	 -53.0443 	 14.2209 	 26.1776 	 
H 	 -54.5678 	 15.5979 	 26.1094 	 
C 	 -56.0709 	 14.2167 	 23.9791 	 
H 	 -56.1975 	 13.3501 	 23.2591 	 
H 	 -56.0036 	 15.1693 	 23.4164 	 
C 	 -57.3505 	 14.4054 	 24.7966 	 
H 	 -57.3993 	 13.6646 	 25.5193 	 
H 	 -57.3674 	 15.368 	 25.4057 	 
C 	 -58.5646 	 14.2652 	 23.9137 	 
H 	 -59.5544 	 14.3995 	 24.4171 	 
H 	 -58.4701 	 15.0666 	 23.1688 	 
H 	 -58.6765 	 13.2721 	 23.4144 	 
S 	 -51.1528 	 13.8662 	 28.0308 	 
C 	 -50.7189 	 15.2011 	 29.1258 	 
C 	 -51.1699 	 16.3697 	 28.6184 	 
C 	 -52.0053 	 16.2586 	 27.506 	 
C 	 -52.2714 	 14.9151 	 27.1918 	 
H 	 -50.8369 	 17.2517 	 29.0552 	 
C 	 -52.391 	 17.504 	 26.7842 	 
H 	 -52.5327 	 17.1775 	 25.7383 	 
H 	 -51.5045 	 18.1424 	 26.6192 	 
C 	 -53.6458 	 18.275 	 27.2644 	 
H 	 -54.4633 	 17.5745 	 27.3346 	 
H 	 -53.9763 	 18.9523 	 26.4169 	 
C 	 -53.5122 	 18.9339 	 28.6121 	 
H 	 -52.8266 	 19.7492 	 28.697 	 
H 	 -53.3013 	 18.1964 	 29.3719 	 
H 	 -54.4078 	 19.4203 	 28.9263 	 
H 	 -54.2773 	 12.0267 	 23.6267 	 
H 	 -50.0106 	 15.2046 	 29.953 	 
