34

S 	 43.8952 	 -11.9777 	 -129.021 	 
C 	 44.1831 	 -10.4385 	 -128.36 	 
C 	 44.6236 	 -10.4616 	 -127.071 	 
C 	 44.6166 	 -11.7715 	 -126.538 	 
C 	 44.1846 	 -12.7337 	 -127.499 	 
H 	 44.8921 	 -12.0287 	 -125.541 	 
C 	 44.8902 	 -9.26648 	 -126.192 	 
H 	 44.6737 	 -8.39666 	 -126.839 	 
H 	 45.9866 	 -9.12579 	 -126.097 	 
C 	 44.1329 	 -9.05924 	 -124.892 	 
H 	 44.4145 	 -9.75864 	 -124.058 	 
H 	 44.4634 	 -8.09229 	 -124.506 	 
C 	 42.619 	 -9.23241 	 -125.128 	 
H 	 42.4134 	 -10.2789 	 -125.288 	 
H 	 41.9314 	 -8.99996 	 -124.268 	 
H 	 42.278 	 -8.70701 	 -125.976 	 
S 	 44.3943 	 -14.7325 	 -125.705 	 
C 	 43.2871 	 -16.0958 	 -125.774 	 
C 	 42.7547 	 -16.1787 	 -127.05 	 
C 	 43.2207 	 -15.1361 	 -127.962 	 
C 	 44.0146 	 -14.1774 	 -127.312 	 
H 	 42.0389 	 -16.8937 	 -127.166 	 
C 	 42.5285 	 -15.0072 	 -129.391 	 
H 	 42.0608 	 -14.0316 	 -129.537 	 
H 	 41.7331 	 -15.7497 	 -129.502 	 
C 	 43.5905 	 -15.162 	 -130.506 	 
H 	 44.366 	 -14.4199 	 -130.382 	 
H 	 43.2879 	 -14.8436 	 -131.464 	 
C 	 44.0368 	 -16.5835 	 -130.662 	 
H 	 44.7237 	 -16.8328 	 -131.429 	 
H 	 43.1495 	 -17.3052 	 -130.658 	 
H 	 44.6252 	 -16.9237 	 -129.87 	 
H 	 43.966 	 -9.48405 	 -128.901 	 
H 	 42.8766 	 -16.6661 	 -124.931 	 
