34

S 	 -42.4172 	 10.0121 	 24.8641 	 
C 	 -42.2613 	 10.9121 	 26.3461 	 
C 	 -41.5114 	 10.2445 	 27.278 	 
C 	 -40.8983 	 9.10814 	 26.7013 	 
C 	 -41.1334 	 8.9107 	 25.3978 	 
H 	 -40.3122 	 8.34397 	 27.1321 	 
C 	 -41.23 	 10.7473 	 28.6572 	 
H 	 -41.3546 	 11.8065 	 28.5001 	 
H 	 -40.1671 	 10.5585 	 28.9839 	 
C 	 -42.2561 	 10.3484 	 29.7448 	 
H 	 -42.0775 	 11.0136 	 30.5375 	 
H 	 -43.2044 	 10.8019 	 29.3271 	 
C 	 -42.4236 	 8.86606 	 30.0755 	 
H 	 -41.6497 	 8.43579 	 30.7229 	 
H 	 -43.4101 	 8.63213 	 30.444 	 
H 	 -42.357 	 8.36666 	 29.1498 	 
S 	 -39.0077 	 7.96495 	 23.8063 	 
C 	 -39.1082 	 6.38666 	 23.0879 	 
C 	 -40.3537 	 5.84856 	 23.3865 	 
C 	 -41.2156 	 6.69373 	 24.0755 	 
C 	 -40.5925 	 7.82379 	 24.5291 	 
H 	 -40.6536 	 4.93659 	 22.8413 	 
C 	 -42.7045 	 6.39748 	 24.1883 	 
H 	 -42.9226 	 6.23279 	 23.1257 	 
H 	 -43.2863 	 7.36076 	 24.4702 	 
C 	 -42.9571 	 5.24767 	 25.2083 	 
H 	 -42.4115 	 4.40665 	 24.8897 	 
H 	 -44.0083 	 4.8247 	 25.216 	 
C 	 -42.6577 	 5.71516 	 26.6591 	 
H 	 -42.1947 	 4.89167 	 27.1541 	 
H 	 -43.5348 	 6.08679 	 27.2147 	 
H 	 -42.0579 	 6.59415 	 26.7219 	 
H 	 -42.824 	 11.7533 	 26.6873 	 
H 	 -38.2337 	 5.83278 	 22.5673 	 
