34

S 	 -88.509 	 -26.3866 	 -60.2197 	 
C 	 -88.1893 	 -24.9674 	 -59.263 	 
C 	 -88.2905 	 -25.1674 	 -57.8797 	 
C 	 -88.6167 	 -26.5285 	 -57.5505 	 
C 	 -88.8956 	 -27.2188 	 -58.7218 	 
H 	 -88.7435 	 -26.9839 	 -56.5941 	 
C 	 -87.9896 	 -24.0833 	 -56.8464 	 
H 	 -87.4521 	 -23.2896 	 -57.4124 	 
H 	 -87.3342 	 -24.5173 	 -56.2487 	 
C 	 -89.2947 	 -23.4531 	 -56.3083 	 
H 	 -89.0185 	 -22.4913 	 -55.869 	 
H 	 -89.9693 	 -23.2697 	 -57.16 	 
C 	 -89.8842 	 -24.3314 	 -55.2185 	 
H 	 -90.0821 	 -25.3873 	 -55.5384 	 
H 	 -89.2048 	 -24.3956 	 -54.4022 	 
H 	 -90.7425 	 -23.8746 	 -54.8526 	 
S 	 -88.5338 	 -29.7822 	 -59.5829 	 
C 	 -89.6101 	 -30.9751 	 -58.9725 	 
C 	 -90.7068 	 -30.4996 	 -58.3696 	 
C 	 -90.5989 	 -29.0782 	 -58.1475 	 
C 	 -89.4371 	 -28.5503 	 -58.6798 	 
H 	 -91.5598 	 -31.1104 	 -58.0856 	 
C 	 -91.6979 	 -28.3125 	 -57.4711 	 
H 	 -92.1619 	 -27.7027 	 -58.2793 	 
H 	 -91.2456 	 -27.7414 	 -56.6588 	 
C 	 -92.9278 	 -29.1116 	 -56.762 	 
H 	 -93.2666 	 -28.4845 	 -55.9032 	 
H 	 -92.6102 	 -29.9528 	 -56.1666 	 
C 	 -94.0696 	 -29.4998 	 -57.6529 	 
H 	 -94.3743 	 -28.6367 	 -58.1399 	 
H 	 -95.0039 	 -29.7091 	 -57.0755 	 
H 	 -93.701 	 -30.2643 	 -58.3588 	 
H 	 -87.9485 	 -24.0269 	 -59.7118 	 
H 	 -89.482 	 -32.0104 	 -59.1565 	 
