34

S 	 -121.568 	 34.3698 	 -110.64 	 
C 	 -119.821 	 34.5226 	 -110.681 	 
C 	 -119.201 	 33.2558 	 -110.731 	 
C 	 -120.109 	 32.2253 	 -110.862 	 
C 	 -121.421 	 32.645 	 -110.868 	 
H 	 -119.935 	 31.1645 	 -110.905 	 
C 	 -117.705 	 33.0028 	 -110.659 	 
H 	 -117.411 	 31.9749 	 -110.603 	 
H 	 -117.418 	 33.4377 	 -109.749 	 
C 	 -116.855 	 33.8231 	 -111.697 	 
H 	 -117.095 	 34.8683 	 -111.643 	 
H 	 -115.872 	 33.7447 	 -111.492 	 
C 	 -117.058 	 33.3199 	 -113.142 	 
H 	 -116.932 	 32.226 	 -113.258 	 
H 	 -118.028 	 33.5783 	 -113.654 	 
H 	 -116.214 	 33.692 	 -113.631 	 
S 	 -123.994 	 31.9204 	 -109.841 	 
C 	 -124.574 	 30.3471 	 -110.3 	 
C 	 -123.864 	 29.8051 	 -111.336 	 
C 	 -122.831 	 30.701 	 -111.784 	 
C 	 -122.657 	 31.8209 	 -110.999 	 
H 	 -124.131 	 28.8384 	 -111.779 	 
C 	 -122.068 	 30.3759 	 -113.065 	 
H 	 -122.002 	 29.2978 	 -113.206 	 
H 	 -121.042 	 30.7199 	 -112.909 	 
C 	 -122.467 	 31.1507 	 -114.378 	 
H 	 -121.705 	 31.0923 	 -115.142 	 
H 	 -122.566 	 32.2074 	 -114.105 	 
C 	 -123.782 	 30.638 	 -114.919 	 
H 	 -124.618 	 30.9183 	 -114.193 	 
H 	 -123.69 	 29.5895 	 -115.134 	 
H 	 -123.974 	 31.1404 	 -115.907 	 
H 	 -119.282 	 35.4172 	 -110.467 	 
H 	 -125.444 	 29.9938 	 -109.882 	 
