34

S 	 -134.902 	 63.3823 	 -59.2747 	 
C 	 -133.907 	 63.6909 	 -60.686 	 
C 	 -132.901 	 64.6719 	 -60.3782 	 
C 	 -132.936 	 65.0881 	 -59.0244 	 
C 	 -133.947 	 64.4428 	 -58.3092 	 
H 	 -132.181 	 65.7076 	 -58.5681 	 
C 	 -131.869 	 65.2374 	 -61.4187 	 
H 	 -131.775 	 64.5784 	 -62.2242 	 
H 	 -130.911 	 65.1124 	 -60.9202 	 
C 	 -132.209 	 66.681 	 -61.8799 	 
H 	 -133.158 	 66.8013 	 -62.3432 	 
H 	 -132.327 	 67.2979 	 -60.9689 	 
C 	 -131.296 	 67.3435 	 -62.8928 	 
H 	 -131.571 	 68.3467 	 -63.026 	 
H 	 -130.257 	 67.3302 	 -62.5785 	 
H 	 -131.343 	 66.8308 	 -63.8748 	 
S 	 -135.409 	 65.8391 	 -56.4259 	 
C 	 -135.369 	 65.2853 	 -54.7702 	 
C 	 -134.378 	 64.3113 	 -54.6157 	 
C 	 -133.739 	 63.886 	 -55.8135 	 
C 	 -134.215 	 64.5985 	 -56.913 	 
H 	 -134.108 	 64.007 	 -53.6569 	 
C 	 -132.668 	 62.8024 	 -55.8437 	 
H 	 -132.794 	 62.1587 	 -56.7527 	 
H 	 -132.917 	 62.0586 	 -55.103 	 
C 	 -131.304 	 63.2825 	 -55.6512 	 
H 	 -131.313 	 64.0959 	 -54.9187 	 
H 	 -130.905 	 63.836 	 -56.5565 	 
C 	 -130.389 	 62.1361 	 -55.229 	 
H 	 -130.554 	 61.8494 	 -54.2047 	 
H 	 -129.419 	 62.546 	 -55.3978 	 
H 	 -130.471 	 61.194 	 -55.7933 	 
H 	 -133.809 	 63.1187 	 -61.5985 	 
H 	 -136.067 	 65.5793 	 -53.9548 	 
