34

S 	 -74.7161 	 1.80379 	 -61.5371 	 
C 	 -75.434 	 2.89573 	 -60.3809 	 
C 	 -76.1138 	 2.20557 	 -59.3888 	 
C 	 -76.1717 	 0.810766 	 -59.6732 	 
C 	 -75.493 	 0.368992 	 -60.7866 	 
H 	 -76.7134 	 0.0585622 	 -59.1613 	 
C 	 -76.741 	 2.89065 	 -58.1488 	 
H 	 -75.993 	 3.46633 	 -57.719 	 
H 	 -77.0154 	 2.26554 	 -57.347 	 
C 	 -77.8592 	 3.92343 	 -58.3624 	 
H 	 -77.5532 	 4.52863 	 -59.2365 	 
H 	 -78.7753 	 3.45168 	 -58.442 	 
C 	 -78.0018 	 4.81662 	 -57.0974 	 
H 	 -78.7989 	 5.56563 	 -57.2121 	 
H 	 -78.4521 	 4.17245 	 -56.3233 	 
H 	 -77.1364 	 5.32403 	 -56.6357 	 
S 	 -75.9057 	 -1.21488 	 -62.957 	 
C 	 -75.5946 	 -2.92196 	 -62.8795 	 
C 	 -75.2459 	 -3.31869 	 -61.62 	 
C 	 -75.1725 	 -2.17628 	 -60.7209 	 
C 	 -75.5448 	 -0.989328 	 -61.3089 	 
H 	 -75.0348 	 -4.35542 	 -61.443 	 
C 	 -74.6577 	 -2.29068 	 -59.3004 	 
H 	 -75.4322 	 -2.82575 	 -58.706 	 
H 	 -74.6169 	 -1.31831 	 -58.8432 	 
C 	 -73.2957 	 -2.90253 	 -59.1812 	 
H 	 -72.5223 	 -2.2906 	 -59.6742 	 
H 	 -73.2406 	 -3.86144 	 -59.6234 	 
C 	 -72.8316 	 -2.91679 	 -57.6894 	 
H 	 -72.5887 	 -1.99083 	 -57.2361 	 
H 	 -71.9046 	 -3.38216 	 -57.6964 	 
H 	 -73.5625 	 -3.50356 	 -57.0435 	 
H 	 -75.3672 	 3.9161 	 -60.2936 	 
H 	 -75.643 	 -3.64478 	 -63.7054 	 
