34

S 	 -73.0949 	 5.75879 	 -113.188 	 
C 	 -73.9049 	 5.75332 	 -111.672 	 
C 	 -73.5537 	 6.88378 	 -110.924 	 
C 	 -72.5726 	 7.71657 	 -111.647 	 
C 	 -72.153 	 7.18764 	 -112.862 	 
H 	 -72.2003 	 8.63177 	 -111.233 	 
C 	 -74.2386 	 7.36587 	 -109.582 	 
H 	 -75.1187 	 6.74622 	 -109.487 	 
H 	 -74.4889 	 8.42437 	 -109.692 	 
C 	 -73.3675 	 7.19542 	 -108.348 	 
H 	 -73.363 	 6.10445 	 -108.115 	 
H 	 -72.3726 	 7.59785 	 -108.706 	 
C 	 -73.8084 	 7.92514 	 -107.056 	 
H 	 -73.127 	 7.54511 	 -106.307 	 
H 	 -73.6632 	 9.01833 	 -106.955 	 
H 	 -74.7862 	 7.74295 	 -106.574 	 
S 	 -72.1672 	 9.36097 	 -114.612 	 
C 	 -70.7034 	 9.70876 	 -115.399 	 
C 	 -69.7845 	 8.71265 	 -115.329 	 
C 	 -70.1744 	 7.69011 	 -114.363 	 
C 	 -71.4059 	 7.96305 	 -113.846 	 
H 	 -68.7903 	 8.76642 	 -115.799 	 
C 	 -69.4482 	 6.43804 	 -114.087 	 
H 	 -69.5565 	 6.0206 	 -113.116 	 
H 	 -68.4195 	 6.80465 	 -114.088 	 
C 	 -69.6976 	 5.30443 	 -115.097 	 
H 	 -70.7058 	 4.93099 	 -115.072 	 
H 	 -69.0576 	 4.43835 	 -114.799 	 
C 	 -69.4261 	 5.56726 	 -116.549 	 
H 	 -68.345 	 5.7833 	 -116.758 	 
H 	 -70.0812 	 6.25734 	 -117.031 	 
H 	 -69.7345 	 4.66335 	 -117.084 	 
H 	 -74.6868 	 5.08959 	 -111.398 	 
H 	 -70.6223 	 10.5298 	 -116.132 	 
