34

S 	 -103.997 	 -5.69374 	 -120.177 	 
C 	 -105.456 	 -5.17703 	 -120.99 	 
C 	 -105.985 	 -4.13467 	 -120.202 	 
C 	 -105.275 	 -3.74216 	 -119.066 	 
C 	 -104.203 	 -4.55783 	 -118.834 	 
H 	 -105.431 	 -2.81411 	 -118.476 	 
C 	 -107.325 	 -3.37631 	 -120.546 	 
H 	 -108.141 	 -3.78625 	 -119.896 	 
H 	 -107.639 	 -3.92885 	 -121.425 	 
C 	 -107.339 	 -1.80317 	 -120.622 	 
H 	 -106.86 	 -1.38074 	 -119.747 	 
H 	 -106.685 	 -1.51225 	 -121.44 	 
C 	 -108.736 	 -1.15602 	 -120.748 	 
H 	 -108.697 	 -0.0519217 	 -120.656 	 
H 	 -109.166 	 -1.2426 	 -121.819 	 
H 	 -109.442 	 -1.62728 	 -119.96 	 
S 	 -101.451 	 -4.48974 	 -118.395 	 
C 	 -100.838 	 -4.0337 	 -116.817 	 
C 	 -101.826 	 -3.69406 	 -115.962 	 
C 	 -103.15 	 -3.83556 	 -116.51 	 
C 	 -103.144 	 -4.31049 	 -117.849 	 
H 	 -101.522 	 -3.33478 	 -114.986 	 
C 	 -104.425 	 -3.35237 	 -115.804 	 
H 	 -105.314 	 -3.79703 	 -116.422 	 
H 	 -104.485 	 -2.31956 	 -115.9 	 
C 	 -104.601 	 -3.79871 	 -114.33 	 
H 	 -103.737 	 -3.60124 	 -113.764 	 
H 	 -104.708 	 -4.84702 	 -114.314 	 
C 	 -105.778 	 -3.21162 	 -113.537 	 
H 	 -105.991 	 -3.7841 	 -112.629 	 
H 	 -106.622 	 -3.22165 	 -114.193 	 
H 	 -105.609 	 -2.13742 	 -113.349 	 
H 	 -106.007 	 -5.79533 	 -121.764 	 
H 	 -99.7984 	 -4.0598 	 -116.481 	 
