34

S 	 17.597 	 -14.3592 	 -123.108 	 
C 	 15.929 	 -14.5814 	 -123.661 	 
C 	 15.0458 	 -14.1587 	 -122.679 	 
C 	 15.767 	 -13.7016 	 -121.514 	 
C 	 17.1178 	 -13.6561 	 -121.65 	 
H 	 15.1717 	 -13.329 	 -120.677 	 
C 	 13.5486 	 -14.1693 	 -122.753 	 
H 	 13.2568 	 -14.5297 	 -121.74 	 
H 	 13.1646 	 -14.8859 	 -123.506 	 
C 	 12.89 	 -12.7724 	 -123.044 	 
H 	 13.5037 	 -12.0045 	 -122.592 	 
H 	 12.9323 	 -12.7305 	 -124.145 	 
C 	 11.3777 	 -12.6358 	 -122.918 	 
H 	 11.006 	 -13.3701 	 -123.473 	 
H 	 10.965 	 -12.7416 	 -121.91 	 
H 	 11.052 	 -11.7047 	 -123.285 	 
S 	 18.9185 	 -11.475 	 -121.408 	 
C 	 19.4474 	 -11.1789 	 -119.8 	 
C 	 19.1133 	 -12.1433 	 -118.907 	 
C 	 18.4164 	 -13.3083 	 -119.471 	 
C 	 18.0899 	 -12.9821 	 -120.799 	 
H 	 19.4916 	 -12.0479 	 -117.845 	 
C 	 18.0273 	 -14.4713 	 -118.606 	 
H 	 17.0772 	 -14.6898 	 -119.062 	 
H 	 17.9138 	 -14.1198 	 -117.557 	 
C 	 18.9014 	 -15.758 	 -118.702 	 
H 	 20.0043 	 -15.6841 	 -118.615 	 
H 	 18.89 	 -16.0379 	 -119.749 	 
C 	 18.3334 	 -16.8248 	 -117.784 	 
H 	 18.9872 	 -17.6851 	 -117.734 	 
H 	 17.4241 	 -17.1257 	 -118.288 	 
H 	 18.1148 	 -16.4631 	 -116.806 	 
H 	 15.7762 	 -14.889 	 -124.707 	 
H 	 19.9879 	 -10.3554 	 -119.352 	 
