34

S 	 -56.1012 	 4.38891 	 -23.7505 	 
C 	 -55.3923 	 5.96014 	 -23.3607 	 
C 	 -54.1026 	 5.74746 	 -22.9116 	 
C 	 -53.6043 	 4.50358 	 -23.3673 	 
C 	 -54.5132 	 3.63203 	 -23.8832 	 
H 	 -52.5575 	 4.10395 	 -23.311 	 
C 	 -53.1926 	 6.87974 	 -22.3304 	 
H 	 -53.3774 	 7.86427 	 -22.7433 	 
H 	 -52.1396 	 6.68225 	 -22.6205 	 
C 	 -53.351 	 7.16564 	 -20.7987 	 
H 	 -54.3605 	 7.54176 	 -20.5835 	 
H 	 -53.102 	 6.20899 	 -20.2992 	 
C 	 -52.3009 	 8.20377 	 -20.4432 	 
H 	 -52.5983 	 9.20587 	 -20.7787 	 
H 	 -52.1708 	 8.33072 	 -19.3095 	 
H 	 -51.4058 	 7.90268 	 -20.9121 	 
S 	 -55.4457 	 1.04004 	 -23.6276 	 
C 	 -54.4798 	 -0.277424 	 -24.2059 	 
C 	 -53.4473 	 0.147144 	 -25.0319 	 
C 	 -53.3061 	 1.55449 	 -24.9787 	 
C 	 -54.3346 	 2.20597 	 -24.2456 	 
H 	 -52.8332 	 -0.589403 	 -25.5032 	 
C 	 -52.3473 	 2.33496 	 -25.8403 	 
H 	 -51.5158 	 1.60319 	 -26.1233 	 
H 	 -51.7894 	 3.05458 	 -25.2766 	 
C 	 -52.9389 	 2.82535 	 -27.1065 	 
H 	 -52.157 	 3.44814 	 -27.5639 	 
H 	 -53.8673 	 3.39147 	 -26.8093 	 
C 	 -53.3005 	 1.69402 	 -28.0093 	 
H 	 -52.4998 	 0.885696 	 -27.881 	 
H 	 -53.3411 	 1.97192 	 -29.0704 	 
H 	 -54.2223 	 1.26863 	 -27.7483 	 
H 	 -56.0185 	 6.80841 	 -23.1075 	 
H 	 -54.8308 	 -1.35674 	 -24.1717 	 
