34

S 	 -81.0196 	 -42.4987 	 -92.3653 	 
C 	 -80.3175 	 -41.7001 	 -93.7524 	 
C 	 -81.139 	 -41.6632 	 -94.7901 	 
C 	 -82.2897 	 -42.5087 	 -94.6116 	 
C 	 -82.2563 	 -43.1194 	 -93.3727 	 
H 	 -83.0723 	 -42.7629 	 -95.3736 	 
C 	 -81.0947 	 -40.9726 	 -96.1755 	 
H 	 -80.9853 	 -41.7817 	 -96.8303 	 
H 	 -80.1587 	 -40.4733 	 -96.2503 	 
C 	 -82.3573 	 -40.1458 	 -96.5106 	 
H 	 -83.2212 	 -40.8354 	 -96.5908 	 
H 	 -82.6612 	 -39.5059 	 -95.63 	 
C 	 -82.2412 	 -39.363 	 -97.8343 	 
H 	 -82.1383 	 -40.0707 	 -98.6375 	 
H 	 -83.0827 	 -38.6338 	 -97.9128 	 
H 	 -81.3724 	 -38.7391 	 -97.8541 	 
S 	 -84.3432 	 -44.6871 	 -94.0266 	 
C 	 -85.3431 	 -45.3556 	 -92.7713 	 
C 	 -85.0642 	 -44.7641 	 -91.5622 	 
C 	 -83.9835 	 -43.8801 	 -91.5839 	 
C 	 -83.3925 	 -43.8598 	 -92.8166 	 
H 	 -85.5808 	 -44.9984 	 -90.5976 	 
C 	 -83.6978 	 -43.0316 	 -90.3836 	 
H 	 -84.6055 	 -42.9839 	 -89.813 	 
H 	 -83.4453 	 -42.0252 	 -90.631 	 
C 	 -82.7345 	 -43.5248 	 -89.3194 	 
H 	 -82.643 	 -42.6817 	 -88.6156 	 
H 	 -81.7027 	 -43.6303 	 -89.6377 	 
C 	 -83.3261 	 -44.8186 	 -88.5746 	 
H 	 -82.5931 	 -45.1826 	 -87.8436 	 
H 	 -83.4565 	 -45.6951 	 -89.146 	 
H 	 -84.2851 	 -44.6554 	 -88.0943 	 
H 	 -79.5419 	 -41.0063 	 -93.5924 	 
H 	 -86.0907 	 -46.0901 	 -92.9057 	 
