34

S 	 -124.339 	 27.8827 	 -112.006 	 
C 	 -124.488 	 26.6146 	 -113.206 	 
C 	 -124.585 	 25.3354 	 -112.638 	 
C 	 -124.453 	 25.4201 	 -111.254 	 
C 	 -124.116 	 26.6732 	 -110.758 	 
H 	 -124.353 	 24.5323 	 -110.667 	 
C 	 -124.792 	 24.0581 	 -113.38 	 
H 	 -123.877 	 23.4781 	 -113.039 	 
H 	 -124.592 	 24.2131 	 -114.434 	 
C 	 -126.107 	 23.3388 	 -113.187 	 
H 	 -126.632 	 23.6501 	 -112.287 	 
H 	 -126.787 	 23.7541 	 -113.952 	 
C 	 -126.02 	 21.8226 	 -113.2 	 
H 	 -127.005 	 21.3452 	 -113.043 	 
H 	 -125.476 	 21.4832 	 -114.113 	 
H 	 -125.52 	 21.4037 	 -112.311 	 
S 	 -122.527 	 28.3119 	 -109.122 	 
C 	 -122.673 	 28.1768 	 -107.351 	 
C 	 -123.711 	 27.3625 	 -107.071 	 
C 	 -124.373 	 26.7692 	 -108.186 	 
C 	 -123.792 	 27.0582 	 -109.404 	 
H 	 -123.986 	 27.2902 	 -106.006 	 
C 	 -125.57 	 25.9024 	 -107.949 	 
H 	 -126.067 	 25.6018 	 -108.91 	 
H 	 -126.112 	 26.644 	 -107.299 	 
C 	 -125.219 	 24.5888 	 -107.222 	 
H 	 -124.817 	 24.8559 	 -106.27 	 
H 	 -124.453 	 24.0129 	 -107.825 	 
C 	 -126.469 	 23.6986 	 -106.869 	 
H 	 -127.236 	 24.1747 	 -106.252 	 
H 	 -126.093 	 22.7886 	 -106.296 	 
H 	 -126.942 	 23.3079 	 -107.783 	 
H 	 -124.571 	 26.7486 	 -114.253 	 
H 	 -122.183 	 28.8527 	 -106.675 	 
