34

S 	 -17.2794 	 -29.2192 	 -104.023 	 
C 	 -18.0607 	 -28.3659 	 -102.661 	 
C 	 -18.8416 	 -29.2408 	 -101.896 	 
C 	 -18.7181 	 -30.566 	 -102.401 	 
C 	 -17.9085 	 -30.7201 	 -103.502 	 
H 	 -19.2386 	 -31.3913 	 -101.932 	 
C 	 -19.5648 	 -28.8437 	 -100.666 	 
H 	 -20.7059 	 -29.0675 	 -100.843 	 
H 	 -19.3901 	 -27.7472 	 -100.627 	 
C 	 -19.1695 	 -29.4799 	 -99.3753 	 
H 	 -19.7956 	 -29.2429 	 -98.4807 	 
H 	 -19.3289 	 -30.5541 	 -99.5298 	 
C 	 -17.6942 	 -29.2317 	 -98.9285 	 
H 	 -17.041 	 -29.4604 	 -99.7519 	 
H 	 -17.6243 	 -28.2114 	 -98.5806 	 
H 	 -17.2984 	 -29.8601 	 -98.1701 	 
S 	 -18.2153 	 -32.0359 	 -105.917 	 
C 	 -17.6821 	 -33.7077 	 -106.069 	 
C 	 -17.159 	 -34.0808 	 -104.848 	 
C 	 -17.1401 	 -33.1373 	 -103.822 	 
C 	 -17.6777 	 -31.9417 	 -104.272 	 
H 	 -16.952 	 -35.1138 	 -104.516 	 
C 	 -16.7211 	 -33.4053 	 -102.379 	 
H 	 -17.563 	 -33.7683 	 -101.809 	 
H 	 -16.4846 	 -32.4 	 -101.985 	 
C 	 -15.5831 	 -34.3794 	 -102.096 	 
H 	 -15.7532 	 -35.377 	 -102.546 	 
H 	 -15.5734 	 -34.7038 	 -101.043 	 
C 	 -14.1938 	 -33.8394 	 -102.54 	 
H 	 -13.9949 	 -32.8486 	 -102.072 	 
H 	 -13.9748 	 -33.7033 	 -103.544 	 
H 	 -13.4472 	 -34.6179 	 -102.267 	 
H 	 -17.9665 	 -27.3039 	 -102.365 	 
H 	 -17.931 	 -34.2404 	 -106.94 	 
