34

S 	 -55.2113 	 -48.9376 	 -79.9958 	 
C 	 -55.6623 	 -47.2611 	 -79.8968 	 
C 	 -55.0831 	 -46.6878 	 -78.7382 	 
C 	 -54.2915 	 -47.6702 	 -78.0136 	 
C 	 -54.4293 	 -48.9155 	 -78.4936 	 
H 	 -53.6469 	 -47.4804 	 -77.1418 	 
C 	 -55.1012 	 -45.2258 	 -78.3879 	 
H 	 -55.3887 	 -45.2087 	 -77.3539 	 
H 	 -55.8714 	 -44.6119 	 -78.9308 	 
C 	 -53.7917 	 -44.5597 	 -78.7534 	 
H 	 -53.8697 	 -44.4185 	 -79.9059 	 
H 	 -53.8658 	 -43.5426 	 -78.3199 	 
C 	 -52.5016 	 -45.1592 	 -78.1861 	 
H 	 -51.7562 	 -44.3968 	 -78.3124 	 
H 	 -52.4625 	 -45.22 	 -77.1073 	 
H 	 -52.1353 	 -46.0897 	 -78.6804 	 
S 	 -52.0289 	 -50.3622 	 -78.6421 	 
C 	 -51.8575 	 -51.7257 	 -77.6361 	 
C 	 -52.829 	 -51.787 	 -76.6896 	 
C 	 -53.894 	 -50.889 	 -76.9752 	 
C 	 -53.6721 	 -50.0369 	 -78.0448 	 
H 	 -52.8001 	 -52.5504 	 -75.9708 	 
C 	 -55.1212 	 -50.8811 	 -76.1931 	 
H 	 -55.4957 	 -51.9224 	 -76.068 	 
H 	 -56.0034 	 -50.4981 	 -76.7405 	 
C 	 -54.9975 	 -50.2993 	 -74.7895 	 
H 	 -54.5777 	 -49.3677 	 -75.0512 	 
H 	 -54.4076 	 -50.938 	 -74.1335 	 
C 	 -56.3455 	 -49.9424 	 -74.1824 	 
H 	 -56.1412 	 -49.4879 	 -73.237 	 
H 	 -56.9657 	 -50.8512 	 -74.0714 	 
H 	 -56.7227 	 -49.1171 	 -74.8079 	 
H 	 -56.267 	 -46.7162 	 -80.5689 	 
H 	 -50.949 	 -52.3298 	 -77.5189 	 
