34

S 	 -121.627 	 35.1994 	 -110.615 	 
C 	 -119.968 	 35.3859 	 -110.085 	 
C 	 -119.36 	 34.212 	 -109.797 	 
C 	 -120.273 	 33.1615 	 -109.874 	 
C 	 -121.521 	 33.5348 	 -110.277 	 
H 	 -120.169 	 32.1826 	 -109.557 	 
C 	 -117.979 	 34.0088 	 -109.222 	 
H 	 -118.012 	 33.0439 	 -108.8 	 
H 	 -117.871 	 34.6157 	 -108.366 	 
C 	 -116.857 	 34.3703 	 -110.245 	 
H 	 -116.994 	 35.3561 	 -110.599 	 
H 	 -115.927 	 34.4087 	 -109.729 	 
C 	 -116.706 	 33.3218 	 -111.315 	 
H 	 -116.554 	 32.3265 	 -111.003 	 
H 	 -117.495 	 33.3275 	 -112.062 	 
H 	 -115.872 	 33.5355 	 -111.981 	 
S 	 -123.561 	 32.1388 	 -108.999 	 
C 	 -124.722 	 31.2169 	 -109.938 	 
C 	 -124.357 	 31.2101 	 -111.273 	 
C 	 -123.253 	 32.0705 	 -111.587 	 
C 	 -122.623 	 32.5983 	 -110.443 	 
H 	 -124.887 	 30.6138 	 -111.967 	 
C 	 -122.737 	 32.2159 	 -113.028 	 
H 	 -122.863 	 31.3062 	 -113.573 	 
H 	 -121.653 	 32.4544 	 -113.01 	 
C 	 -123.676 	 33.2794 	 -113.665 	 
H 	 -123.909 	 34.1991 	 -113.051 	 
H 	 -124.632 	 32.8722 	 -113.872 	 
C 	 -123.12 	 33.7265 	 -115.038 	 
H 	 -122.938 	 32.9474 	 -115.79 	 
H 	 -122.087 	 34.1482 	 -114.94 	 
H 	 -123.829 	 34.4232 	 -115.429 	 
H 	 -119.513 	 36.408 	 -110.117 	 
H 	 -125.39 	 30.604 	 -109.389 	 
