34

S 	 -45.2392 	 -0.957672 	 -18.7789 	 
C 	 -44.8751 	 -0.330235 	 -17.1956 	 
C 	 -44.0199 	 -1.19407 	 -16.5058 	 
C 	 -43.6016 	 -2.31743 	 -17.3477 	 
C 	 -44.1543 	 -2.33426 	 -18.5849 	 
H 	 -42.8795 	 -3.09854 	 -17.0174 	 
C 	 -43.4707 	 -0.827702 	 -15.1591 	 
H 	 -43.4097 	 0.283018 	 -14.9823 	 
H 	 -42.4647 	 -1.11658 	 -15.0382 	 
C 	 -44.2109 	 -1.39717 	 -13.949 	 
H 	 -43.7987 	 -0.819862 	 -13.1346 	 
H 	 -45.2645 	 -1.07348 	 -13.9417 	 
C 	 -44.0964 	 -2.86582 	 -13.6693 	 
H 	 -44.4743 	 -3.43665 	 -14.4183 	 
H 	 -43.0849 	 -3.19433 	 -13.4924 	 
H 	 -44.7246 	 -3.10747 	 -12.7841 	 
S 	 -45.6879 	 -4.1348 	 -19.717 	 
C 	 -44.8834 	 -5.54585 	 -20.4795 	 
C 	 -43.6138 	 -5.32482 	 -20.7253 	 
C 	 -43.0643 	 -4.24153 	 -19.9685 	 
C 	 -44.1019 	 -3.39616 	 -19.5112 	 
H 	 -43.0827 	 -5.95854 	 -21.345 	 
C 	 -41.6033 	 -3.82434 	 -19.9499 	 
H 	 -41.0547 	 -4.82497 	 -19.9363 	 
H 	 -41.3229 	 -3.34694 	 -19.0398 	 
C 	 -41.1511 	 -2.99911 	 -21.1458 	 
H 	 -41.3273 	 -3.56865 	 -22.0913 	 
H 	 -40.0972 	 -2.86568 	 -21.1392 	 
C 	 -41.8731 	 -1.58218 	 -21.2621 	 
H 	 -42.9788 	 -1.62608 	 -21.5795 	 
H 	 -41.3476 	 -0.945063 	 -21.9847 	 
H 	 -41.7768 	 -0.946579 	 -20.3671 	 
H 	 -45.1873 	 0.602902 	 -16.7064 	 
H 	 -45.3565 	 -6.30193 	 -21.0934 	 
