34

S 	 -117.677 	 58.9784 	 -40.3887 	 
C 	 -118.2 	 60.6766 	 -40.4594 	 
C 	 -118.535 	 61.1284 	 -39.1978 	 
C 	 -117.986 	 60.2417 	 -38.2534 	 
C 	 -117.389 	 59.0448 	 -38.6966 	 
H 	 -117.899 	 60.5619 	 -37.1997 	 
C 	 -119.072 	 62.5069 	 -38.8514 	 
H 	 -119.181 	 63.0662 	 -39.7512 	 
H 	 -118.372 	 63.15 	 -38.2934 	 
C 	 -120.372 	 62.4861 	 -37.9897 	 
H 	 -120.64 	 63.5095 	 -37.6754 	 
H 	 -121.217 	 62.1835 	 -38.5386 	 
C 	 -120.271 	 61.6974 	 -36.6458 	 
H 	 -119.283 	 61.7449 	 -36.1461 	 
H 	 -120.997 	 62.0995 	 -35.9083 	 
H 	 -120.432 	 60.6476 	 -36.8663 	 
S 	 -115.854 	 58.5908 	 -36.4962 	 
C 	 -115.768 	 56.9656 	 -35.8169 	 
C 	 -116.419 	 56.0636 	 -36.6628 	 
C 	 -116.939 	 56.7115 	 -37.8635 	 
C 	 -116.721 	 58.0371 	 -37.927 	 
H 	 -116.55 	 55.0571 	 -36.3242 	 
C 	 -117.611 	 55.7997 	 -38.955 	 
H 	 -118.228 	 56.4658 	 -39.6236 	 
H 	 -118.329 	 55.2665 	 -38.4259 	 
C 	 -116.582 	 54.86 	 -39.6981 	 
H 	 -117.061 	 54.3217 	 -40.4964 	 
H 	 -116.127 	 54.1495 	 -38.9873 	 
C 	 -115.517 	 55.7209 	 -40.4554 	 
H 	 -115.939 	 56.6167 	 -40.8708 	 
H 	 -115.153 	 55.1141 	 -41.2742 	 
H 	 -114.672 	 56.0523 	 -39.8572 	 
H 	 -118.496 	 61.2711 	 -41.3346 	 
H 	 -115.322 	 56.7777 	 -34.8162 	 
