34

S 	 -146.049 	 3.2903 	 13.6663 	 
C 	 -144.792 	 2.10581 	 13.1905 	 
C 	 -143.834 	 2.75239 	 12.4856 	 
C 	 -143.915 	 4.18782 	 12.5072 	 
C 	 -145.056 	 4.66159 	 13.0968 	 
H 	 -143.231 	 4.8693 	 12.0601 	 
C 	 -142.754 	 1.94613 	 11.8048 	 
H 	 -142.81 	 0.914747 	 12.1144 	 
H 	 -141.773 	 2.27126 	 12.3224 	 
C 	 -142.655 	 2.03387 	 10.291 	 
H 	 -143.585 	 1.66371 	 9.87066 	 
H 	 -142.486 	 3.08198 	 10.0977 	 
C 	 -141.575 	 1.17218 	 9.65219 	 
H 	 -140.777 	 1.29038 	 10.3161 	 
H 	 -141.821 	 0.139086 	 9.76839 	 
H 	 -141.27 	 1.30794 	 8.59156 	 
S 	 -143.843 	 6.92934 	 14.1945 	 
C 	 -144.81 	 8.31749 	 14.5061 	 
C 	 -146.091 	 8.22693 	 13.9794 	 
C 	 -146.32 	 6.93531 	 13.356 	 
C 	 -145.234 	 6.06339 	 13.492 	 
H 	 -146.733 	 9.11623 	 14.0075 	 
C 	 -147.61 	 6.44801 	 12.7209 	 
H 	 -148.471 	 6.85804 	 13.3469 	 
H 	 -147.741 	 5.40181 	 12.9018 	 
C 	 -147.676 	 6.6508 	 11.1821 	 
H 	 -146.875 	 6.01585 	 10.7444 	 
H 	 -147.531 	 7.70879 	 10.8916 	 
C 	 -148.952 	 6.13491 	 10.6158 	 
H 	 -148.84 	 5.83235 	 9.60854 	 
H 	 -149.744 	 6.89769 	 10.4355 	 
H 	 -149.333 	 5.24032 	 11.0891 	 
H 	 -145.034 	 1.06338 	 13.1866 	 
H 	 -144.338 	 9.18137 	 14.876 	 
