34

S 	 -127.158 	 62.6227 	 -61.6108 	 
C 	 -128.768 	 62.3855 	 -62.2949 	 
C 	 -129.753 	 63.0077 	 -61.4881 	 
C 	 -129.157 	 63.4634 	 -60.2315 	 
C 	 -127.801 	 63.2012 	 -60.1465 	 
H 	 -129.777 	 63.7049 	 -59.3499 	 
C 	 -131.285 	 63.0768 	 -61.62 	 
H 	 -131.681 	 62.263 	 -60.9562 	 
H 	 -131.488 	 62.5924 	 -62.6097 	 
C 	 -131.902 	 64.4595 	 -61.4186 	 
H 	 -132.988 	 64.4634 	 -61.4683 	 
H 	 -131.711 	 64.8525 	 -60.436 	 
C 	 -131.402 	 65.5168 	 -62.4423 	 
H 	 -131.588 	 65.1698 	 -63.4345 	 
H 	 -132.071 	 66.4209 	 -62.2979 	 
H 	 -130.448 	 65.9243 	 -62.3574 	 
S 	 -125.388 	 63.8243 	 -58.9627 	 
C 	 -125.185 	 63.9679 	 -57.3186 	 
C 	 -126.316 	 63.4612 	 -56.6552 	 
C 	 -127.379 	 63.1001 	 -57.5455 	 
C 	 -127.085 	 63.3821 	 -58.881 	 
H 	 -126.363 	 63.2598 	 -55.5886 	 
C 	 -128.696 	 62.4885 	 -57.0426 	 
H 	 -129.599 	 63.1711 	 -57.1886 	 
H 	 -128.54 	 62.4797 	 -55.9976 	 
C 	 -128.832 	 61.0073 	 -57.2964 	 
H 	 -127.95 	 60.5079 	 -56.8834 	 
H 	 -128.965 	 60.8415 	 -58.4073 	 
C 	 -130.103 	 60.3313 	 -56.6463 	 
H 	 -130.105 	 60.5667 	 -55.5842 	 
H 	 -130.188 	 59.204 	 -56.7542 	 
H 	 -130.907 	 60.9117 	 -57.0087 	 
H 	 -129.081 	 61.8413 	 -63.2095 	 
H 	 -124.342 	 64.379 	 -56.8059 	 
