34

S 	 -134.67 	 8.92688 	 -8.08043 	 
C 	 -135.768 	 10.3138 	 -7.94163 	 
C 	 -137.054 	 9.82682 	 -7.64454 	 
C 	 -137.114 	 8.39244 	 -7.62606 	 
C 	 -135.961 	 7.73094 	 -7.86401 	 
H 	 -138.044 	 7.82721 	 -7.31259 	 
C 	 -138.23 	 10.8407 	 -7.45163 	 
H 	 -138.48 	 11.2262 	 -8.37334 	 
H 	 -137.724 	 11.7126 	 -6.92714 	 
C 	 -139.442 	 10.3075 	 -6.62679 	 
H 	 -139.849 	 9.43231 	 -7.11507 	 
H 	 -139.054 	 10.071 	 -5.6352 	 
C 	 -140.587 	 11.2484 	 -6.41052 	 
H 	 -141.506 	 10.7048 	 -5.96173 	 
H 	 -140.378 	 12.0148 	 -5.66279 	 
H 	 -140.965 	 11.7847 	 -7.30459 	 
S 	 -137.116 	 5.31215 	 -8.49105 	 
C 	 -136.132 	 3.97415 	 -8.79975 	 
C 	 -134.89 	 4.06397 	 -8.25949 	 
C 	 -134.622 	 5.436 	 -7.94086 	 
C 	 -135.744 	 6.26443 	 -8.03662 	 
H 	 -134.205 	 3.24257 	 -8.08533 	 
C 	 -133.267 	 5.83072 	 -7.38824 	 
H 	 -132.82 	 5.03117 	 -6.80176 	 
H 	 -133.33 	 6.53039 	 -6.55501 	 
C 	 -132.311 	 6.28904 	 -8.42988 	 
H 	 -132.776 	 7.04212 	 -9.05887 	 
H 	 -131.899 	 5.46078 	 -9.021 	 
C 	 -131.03 	 7.0071 	 -7.88246 	 
H 	 -131.422 	 7.90906 	 -7.30719 	 
H 	 -130.333 	 7.248 	 -8.69929 	 
H 	 -130.426 	 6.42397 	 -7.11503 	 
H 	 -135.56 	 11.3565 	 -8.11584 	 
H 	 -136.499 	 3.0117 	 -9.05883 	 
