34

S 	 -124.62 	 61.1819 	 -59.4212 	 
C 	 -123.524 	 62.4695 	 -59.1801 	 
C 	 -124.019 	 63.3885 	 -58.2854 	 
C 	 -125.259 	 63.0413 	 -57.7172 	 
C 	 -125.788 	 61.8672 	 -58.3188 	 
H 	 -125.732 	 63.5087 	 -56.8493 	 
C 	 -123.361 	 64.7409 	 -58.1058 	 
H 	 -122.339 	 64.8315 	 -58.516 	 
H 	 -123.24 	 64.8432 	 -56.9989 	 
C 	 -124.205 	 65.9291 	 -58.6577 	 
H 	 -124.4 	 65.6811 	 -59.7043 	 
H 	 -125.131 	 65.9017 	 -58.0419 	 
C 	 -123.601 	 67.3075 	 -58.3607 	 
H 	 -122.691 	 67.5431 	 -58.9169 	 
H 	 -124.236 	 68.1672 	 -58.4617 	 
H 	 -123.217 	 67.3774 	 -57.3406 	 
S 	 -126.851 	 59.4798 	 -57.3383 	 
C 	 -128.478 	 59.4863 	 -56.7668 	 
C 	 -129.06 	 60.7225 	 -57.0411 	 
C 	 -128.148 	 61.6646 	 -57.5261 	 
C 	 -126.962 	 61.1004 	 -57.9283 	 
H 	 -130.095 	 60.9148 	 -56.858 	 
C 	 -128.618 	 63.0939 	 -57.8263 	 
H 	 -127.872 	 63.7429 	 -57.2856 	 
H 	 -129.572 	 63.2733 	 -57.4157 	 
C 	 -128.758 	 63.4369 	 -59.3014 	 
H 	 -129.473 	 62.7453 	 -59.853 	 
H 	 -127.785 	 63.6019 	 -59.7185 	 
C 	 -129.47 	 64.7873 	 -59.5384 	 
H 	 -129.014 	 65.5826 	 -58.9505 	 
H 	 -130.581 	 64.8352 	 -59.2817 	 
H 	 -129.286 	 65.2272 	 -60.4795 	 
H 	 -122.627 	 62.7935 	 -59.7624 	 
H 	 -129.028 	 58.646 	 -56.4149 	 
