34

S 	 -109.395 	 40.5471 	 -12.1298 	 
C 	 -108.24 	 41.8437 	 -12.5239 	 
C 	 -108.189 	 42.7744 	 -11.4867 	 
C 	 -109.047 	 42.4957 	 -10.4378 	 
C 	 -109.813 	 41.3599 	 -10.5858 	 
H 	 -109.204 	 43.1832 	 -9.60703 	 
C 	 -107.351 	 44.1022 	 -11.5156 	 
H 	 -106.338 	 43.8434 	 -11.7353 	 
H 	 -107.419 	 44.7004 	 -10.6107 	 
C 	 -107.567 	 45.032 	 -12.7175 	 
H 	 -106.753 	 45.796 	 -12.8347 	 
H 	 -107.455 	 44.3836 	 -13.5728 	 
C 	 -108.943 	 45.6996 	 -12.842 	 
H 	 -109.642 	 45.1994 	 -13.5052 	 
H 	 -109.395 	 45.7347 	 -11.8069 	 
H 	 -108.946 	 46.735 	 -13.1581 	 
S 	 -112.472 	 40.9438 	 -10.1894 	 
C 	 -112.984 	 40.3437 	 -8.58065 	 
C 	 -111.945 	 40.145 	 -7.75473 	 
C 	 -110.689 	 40.5353 	 -8.24549 	 
C 	 -110.79 	 40.9533 	 -9.60235 	 
H 	 -112.076 	 39.6807 	 -6.77513 	 
C 	 -109.467 	 40.2808 	 -7.47843 	 
H 	 -108.593 	 40.2523 	 -8.09242 	 
H 	 -109.505 	 39.2847 	 -7.25648 	 
C 	 -109.159 	 41.1568 	 -6.23322 	 
H 	 -108.341 	 40.707 	 -5.68346 	 
H 	 -110.098 	 41.2111 	 -5.60322 	 
C 	 -108.889 	 42.6488 	 -6.50593 	 
H 	 -108.796 	 43.2601 	 -5.63091 	 
H 	 -109.845 	 43.0588 	 -6.90394 	 
H 	 -108.02 	 42.8088 	 -7.17401 	 
H 	 -107.521 	 41.785 	 -13.3792 	 
H 	 -114.057 	 40.1477 	 -8.28347 	 
