34

S 	 -107.211 	 67.8671 	 -8.36429 	 
C 	 -106.63 	 69.446 	 -9.03166 	 
C 	 -107.065 	 69.6237 	 -10.3839 	 
C 	 -107.864 	 68.5202 	 -10.8311 	 
C 	 -108.156 	 67.5887 	 -9.82236 	 
H 	 -108.191 	 68.3437 	 -11.8038 	 
C 	 -106.601 	 70.7495 	 -11.3043 	 
H 	 -105.714 	 70.3171 	 -11.8061 	 
H 	 -106.373 	 71.6709 	 -10.8722 	 
C 	 -107.544 	 71.1135 	 -12.4489 	 
H 	 -107.824 	 70.2489 	 -13.0785 	 
H 	 -108.335 	 71.5325 	 -11.9052 	 
C 	 -107.018 	 72.2422 	 -13.3764 	 
H 	 -107.74 	 72.5477 	 -14.1067 	 
H 	 -106.784 	 73.1778 	 -12.8611 	 
H 	 -106.151 	 71.9477 	 -13.9881 	 
S 	 -107.751 	 64.8253 	 -10.0412 	 
C 	 -109.182 	 63.7209 	 -10.2231 	 
C 	 -110.304 	 64.4633 	 -10.4756 	 
C 	 -110.106 	 65.8914 	 -10.3477 	 
C 	 -108.739 	 66.2372 	 -10.0913 	 
H 	 -111.303 	 64.1174 	 -10.5416 	 
C 	 -111.301 	 66.7928 	 -10.33 	 
H 	 -111.879 	 66.5875 	 -11.2752 	 
H 	 -110.918 	 67.8145 	 -10.4648 	 
C 	 -112.207 	 66.6771 	 -9.18901 	 
H 	 -112.763 	 65.7052 	 -9.44162 	 
H 	 -112.88 	 67.5967 	 -9.2144 	 
C 	 -111.412 	 66.5764 	 -7.86632 	 
H 	 -110.764 	 65.6829 	 -7.80463 	 
H 	 -112.07 	 66.5497 	 -6.97808 	 
H 	 -110.865 	 67.5152 	 -7.67371 	 
H 	 -105.908 	 70.0229 	 -8.51737 	 
H 	 -109.275 	 62.6332 	 -10.2253 	 
