34

S 	 -140.216 	 9.6315 	 1.44802 	 
C 	 -141.441 	 9.45149 	 0.201536 	 
C 	 -141.019 	 8.8274 	 -0.893069 	 
C 	 -139.616 	 8.52085 	 -0.879783 	 
C 	 -139.039 	 8.85506 	 0.354163 	 
H 	 -139.02 	 8.06873 	 -1.68869 	 
C 	 -141.866 	 8.66207 	 -2.14004 	 
H 	 -141.201 	 8.27481 	 -2.89086 	 
H 	 -142.154 	 9.62889 	 -2.47238 	 
C 	 -143.086 	 7.69376 	 -2.05026 	 
H 	 -142.763 	 6.65327 	 -1.86137 	 
H 	 -143.776 	 8.07259 	 -1.32794 	 
C 	 -143.811 	 7.71457 	 -3.40519 	 
H 	 -143.305 	 7.3002 	 -4.3469 	 
H 	 -144.757 	 7.18505 	 -3.42497 	 
H 	 -144.164 	 8.7334 	 -3.62445 	 
S 	 -136.623 	 10.0968 	 0.817151 	 
C 	 -135.143 	 9.16387 	 1.06735 	 
C 	 -135.444 	 7.81415 	 1.12704 	 
C 	 -136.826 	 7.53175 	 0.85857 	 
C 	 -137.618 	 8.67262 	 0.680584 	 
H 	 -134.677 	 7.03397 	 1.1494 	 
C 	 -137.339 	 6.13547 	 0.825737 	 
H 	 -137.799 	 5.90686 	 -0.0976417 	 
H 	 -138.292 	 6.1383 	 1.34817 	 
C 	 -136.461 	 4.96344 	 1.47128 	 
H 	 -135.359 	 4.92467 	 1.01693 	 
H 	 -136.943 	 3.96548 	 1.24716 	 
C 	 -136.339 	 5.05117 	 2.98876 	 
H 	 -137.282 	 4.85098 	 3.68959 	 
H 	 -135.88 	 5.94656 	 3.41929 	 
H 	 -135.715 	 4.24171 	 3.35442 	 
H 	 -142.449 	 9.81142 	 0.317004 	 
H 	 -134.174 	 9.5943 	 1.20154 	 
