34

S 	 -130.495 	 60.4815 	 -56.8303 	 
C 	 -131.634 	 61.2469 	 -57.9951 	 
C 	 -131.01 	 61.9169 	 -59.0159 	 
C 	 -129.594 	 61.7358 	 -58.8879 	 
C 	 -129.138 	 61.0555 	 -57.7456 	 
H 	 -128.789 	 62.1458 	 -59.5151 	 
C 	 -131.742 	 62.7214 	 -60.0757 	 
H 	 -131.045 	 63.5365 	 -60.4334 	 
H 	 -132.57 	 63.1673 	 -59.6247 	 
C 	 -132.254 	 61.8806 	 -61.2913 	 
H 	 -131.351 	 61.6325 	 -61.8736 	 
H 	 -132.599 	 60.9232 	 -60.9454 	 
C 	 -133.443 	 62.4947 	 -62.1076 	 
H 	 -133.36 	 63.5398 	 -62.4767 	 
H 	 -133.605 	 61.9967 	 -63.0529 	 
H 	 -134.343 	 62.4084 	 -61.4608 	 
S 	 -126.991 	 61.5342 	 -56.0945 	 
C 	 -125.54 	 60.6704 	 -56.3046 	 
C 	 -125.598 	 59.9042 	 -57.4389 	 
C 	 -126.833 	 59.9648 	 -58.1561 	 
C 	 -127.763 	 60.735 	 -57.4397 	 
H 	 -124.841 	 59.2078 	 -57.6528 	 
C 	 -127.123 	 59.166 	 -59.3864 	 
H 	 -127.9 	 59.7651 	 -59.7067 	 
H 	 -127.456 	 58.15 	 -59.1532 	 
C 	 -126.062 	 59.1058 	 -60.5514 	 
H 	 -125.146 	 58.5792 	 -60.172 	 
H 	 -125.85 	 60.1331 	 -60.7873 	 
C 	 -126.512 	 58.4021 	 -61.8209 	 
H 	 -127.231 	 58.9326 	 -62.5306 	 
H 	 -127.04 	 57.5437 	 -61.5051 	 
H 	 -125.653 	 58.0542 	 -62.3457 	 
H 	 -132.722 	 61.2379 	 -58.0451 	 
H 	 -124.766 	 60.5594 	 -55.5828 	 
