34

S 	 -98.7833 	 -0.451651 	 -116.984 	 
C 	 -97.7276 	 -1.22321 	 -118.106 	 
C 	 -98.0316 	 -0.899193 	 -119.413 	 
C 	 -99.1224 	 0.0475211 	 -119.476 	 
C 	 -99.7275 	 0.358373 	 -118.258 	 
H 	 -99.4134 	 0.591644 	 -120.374 	 
C 	 -97.1911 	 -1.30951 	 -120.591 	 
H 	 -96.3015 	 -1.77968 	 -120.287 	 
H 	 -96.8413 	 -0.39237 	 -121.101 	 
C 	 -97.8287 	 -2.34168 	 -121.514 	 
H 	 -98.8102 	 -1.97469 	 -121.816 	 
H 	 -97.3056 	 -2.44065 	 -122.423 	 
C 	 -98.0114 	 -3.76687 	 -121.058 	 
H 	 -96.9823 	 -4.17669 	 -120.977 	 
H 	 -98.4291 	 -3.94322 	 -120.103 	 
H 	 -98.4861 	 -4.36718 	 -121.855 	 
S 	 -100.594 	 2.69696 	 -117.091 	 
C 	 -102.343 	 2.96575 	 -116.863 	 
C 	 -103.04 	 2.03201 	 -117.577 	 
C 	 -102.217 	 1.09832 	 -118.221 	 
C 	 -100.839 	 1.26734 	 -117.961 	 
H 	 -104.095 	 2.03552 	 -117.346 	 
C 	 -102.746 	 -0.123273 	 -118.95 	 
H 	 -103.672 	 -0.265889 	 -118.513 	 
H 	 -102.174 	 -0.964762 	 -118.576 	 
C 	 -102.78 	 0.0969592 	 -120.515 	 
H 	 -101.799 	 0.337102 	 -120.824 	 
H 	 -103.506 	 0.944578 	 -120.693 	 
C 	 -103.299 	 -1.12577 	 -121.32 	 
H 	 -102.642 	 -2.00998 	 -121.279 	 
H 	 -103.443 	 -0.824213 	 -122.374 	 
H 	 -104.303 	 -1.38386 	 -120.985 	 
H 	 -96.8864 	 -1.74102 	 -117.804 	 
H 	 -102.64 	 3.75127 	 -116.166 	 
