34

S 	 -105.413 	 66.0994 	 -12.9913 	 
C 	 -104.452 	 67.5337 	 -12.8027 	 
C 	 -103.191 	 67.2821 	 -12.3654 	 
C 	 -103.085 	 65.8948 	 -12.0038 	 
C 	 -104.257 	 65.1722 	 -12.1125 	 
H 	 -102.178 	 65.5036 	 -11.5891 	 
C 	 -101.975 	 68.2174 	 -12.1896 	 
H 	 -102.295 	 69.1993 	 -12.5943 	 
H 	 -101.09 	 67.9145 	 -12.6937 	 
C 	 -101.598 	 68.5421 	 -10.6808 	 
H 	 -102.46 	 68.7955 	 -10.1277 	 
H 	 -101.437 	 67.7162 	 -10.0807 	 
C 	 -100.576 	 69.6425 	 -10.5453 	 
H 	 -100.257 	 69.7975 	 -9.5684 	 
H 	 -99.7972 	 69.6257 	 -11.2824 	 
H 	 -100.95 	 70.611 	 -10.7675 	 
S 	 -105.079 	 62.6903 	 -12.9168 	 
C 	 -105.048 	 61.3366 	 -11.7797 	 
C 	 -104.347 	 61.7179 	 -10.6591 	 
C 	 -104.069 	 63.1288 	 -10.6009 	 
C 	 -104.534 	 63.8177 	 -11.6875 	 
H 	 -103.876 	 61.0478 	 -9.96945 	 
C 	 -103.354 	 63.8206 	 -9.404 	 
H 	 -103.12 	 64.7963 	 -9.63918 	 
H 	 -102.374 	 63.4071 	 -9.13438 	 
C 	 -104.14 	 63.7969 	 -8.05557 	 
H 	 -103.64 	 64.4519 	 -7.38093 	 
H 	 -104.23 	 62.8077 	 -7.61993 	 
C 	 -105.569 	 64.482 	 -8.21972 	 
H 	 -105.532 	 65.4917 	 -8.58902 	 
H 	 -106.186 	 64.5198 	 -7.37095 	 
H 	 -106.243 	 63.9847 	 -8.84062 	 
H 	 -104.739 	 68.5029 	 -13.2191 	 
H 	 -105.059 	 60.2924 	 -12.0478 	 
