34

S 	 -110.454 	 20.7003 	 -113.61 	 
C 	 -111.257 	 19.7483 	 -112.398 	 
C 	 -111.596 	 18.4995 	 -112.871 	 
C 	 -111.352 	 18.3314 	 -114.301 	 
C 	 -110.627 	 19.4446 	 -114.841 	 
H 	 -111.392 	 17.3922 	 -114.82 	 
C 	 -112.475 	 17.475 	 -112.173 	 
H 	 -112.233 	 17.5417 	 -111.152 	 
H 	 -112.189 	 16.5276 	 -112.572 	 
C 	 -113.995 	 17.6582 	 -112.271 	 
H 	 -114.479 	 17.0474 	 -111.549 	 
H 	 -114.289 	 18.7093 	 -112.043 	 
C 	 -114.49 	 17.229 	 -113.639 	 
H 	 -115.542 	 17.1126 	 -113.596 	 
H 	 -114.31 	 17.8566 	 -114.484 	 
H 	 -114.105 	 16.3141 	 -113.997 	 
S 	 -108.346 	 19.8427 	 -116.321 	 
C 	 -108.525 	 19.8958 	 -118.071 	 
C 	 -109.849 	 19.9424 	 -118.497 	 
C 	 -110.743 	 19.7559 	 -117.376 	 
C 	 -110.106 	 19.6218 	 -116.172 	 
H 	 -110.057 	 19.9597 	 -119.575 	 
C 	 -112.279 	 19.7432 	 -117.555 	 
H 	 -112.452 	 20.4194 	 -118.459 	 
H 	 -112.762 	 20.1488 	 -116.662 	 
C 	 -112.944 	 18.4011 	 -118.005 	 
H 	 -112.757 	 17.6598 	 -117.221 	 
H 	 -112.229 	 18.0965 	 -118.831 	 
C 	 -114.432 	 18.5124 	 -118.446 	 
H 	 -115.008 	 18.6225 	 -117.505 	 
H 	 -114.695 	 17.5679 	 -118.915 	 
H 	 -114.582 	 19.3493 	 -119.055 	 
H 	 -111.66 	 20.0793 	 -111.44 	 
H 	 -107.792 	 19.7457 	 -118.802 	 
