34

S 	 -108.506 	 49.8891 	 -90.8654 	 
C 	 -108.077 	 48.6069 	 -89.8016 	 
C 	 -108.429 	 48.8785 	 -88.5135 	 
C 	 -109.157 	 50.1143 	 -88.3869 	 
C 	 -109.446 	 50.6455 	 -89.592 	 
H 	 -109.557 	 50.4894 	 -87.4407 	 
C 	 -108.114 	 48.0395 	 -87.288 	 
H 	 -107.98 	 47.0003 	 -87.5419 	 
H 	 -108.95 	 48.1708 	 -86.7466 	 
C 	 -106.881 	 48.478 	 -86.4222 	 
H 	 -107.02 	 49.5789 	 -86.2058 	 
H 	 -106.886 	 48.0202 	 -85.5007 	 
C 	 -105.501 	 48.3288 	 -87.0614 	 
H 	 -104.718 	 48.5192 	 -86.3619 	 
H 	 -105.329 	 47.3088 	 -87.4243 	 
H 	 -105.421 	 48.8086 	 -88.0141 	 
S 	 -109.595 	 53.2668 	 -90.5266 	 
C 	 -111.097 	 54.1211 	 -90.3495 	 
C 	 -112.047 	 53.3417 	 -89.8254 	 
C 	 -111.663 	 51.9754 	 -89.4823 	 
C 	 -110.322 	 51.8404 	 -89.7311 	 
H 	 -113.018 	 53.7692 	 -89.7356 	 
C 	 -112.741 	 50.932 	 -89.208 	 
H 	 -113.515 	 51.3954 	 -88.5765 	 
H 	 -112.282 	 50.1889 	 -88.5475 	 
C 	 -113.259 	 50.1953 	 -90.4525 	 
H 	 -112.608 	 49.9766 	 -91.2066 	 
H 	 -113.758 	 51.0492 	 -90.9984 	 
C 	 -114.24 	 49.0731 	 -90.2515 	 
H 	 -114.374 	 48.4255 	 -91.1287 	 
H 	 -115.19 	 49.4181 	 -89.8984 	 
H 	 -113.944 	 48.2559 	 -89.6332 	 
H 	 -107.263 	 47.9285 	 -89.9815 	 
H 	 -111.32 	 55.1285 	 -90.4842 	 
