34

S 	 -63.3981 	 8.54352 	 -105.358 	 
C 	 -63.9551 	 9.71625 	 -106.558 	 
C 	 -63.3911 	 10.9994 	 -106.323 	 
C 	 -62.6386 	 10.9267 	 -105.112 	 
C 	 -62.5749 	 9.75961 	 -104.466 	 
H 	 -62.1714 	 11.8539 	 -104.697 	 
C 	 -63.5575 	 12.1579 	 -107.261 	 
H 	 -63.6327 	 11.7651 	 -108.284 	 
H 	 -62.5594 	 12.6361 	 -107.338 	 
C 	 -64.6028 	 13.1852 	 -106.859 	 
H 	 -65.6175 	 12.7959 	 -106.769 	 
H 	 -64.3073 	 13.375 	 -105.85 	 
C 	 -64.6603 	 14.4733 	 -107.654 	 
H 	 -65.2259 	 15.2686 	 -107.157 	 
H 	 -63.6534 	 14.7529 	 -107.784 	 
H 	 -65.0203 	 14.541 	 -108.735 	 
S 	 -62.7103 	 8.53696 	 -102.081 	 
C 	 -61.5336 	 8.87736 	 -100.817 	 
C 	 -60.6097 	 9.80095 	 -101.232 	 
C 	 -60.7818 	 10.2078 	 -102.652 	 
C 	 -61.9088 	 9.55811 	 -103.186 	 
H 	 -59.8779 	 10.1668 	 -100.599 	 
C 	 -59.8539 	 11.2879 	 -103.258 	 
H 	 -59.9127 	 11.3635 	 -104.274 	 
H 	 -58.8336 	 11.0427 	 -103.098 	 
C 	 -60.0682 	 12.5843 	 -102.602 	 
H 	 -59.8116 	 12.7149 	 -101.609 	 
H 	 -61.0589 	 12.7336 	 -102.728 	 
C 	 -59.3169 	 13.7114 	 -103.337 	 
H 	 -59.4887 	 14.5811 	 -102.717 	 
H 	 -59.7447 	 14.0097 	 -104.349 	 
H 	 -58.2061 	 13.4498 	 -103.366 	 
H 	 -64.4722 	 9.46609 	 -107.473 	 
H 	 -61.7181 	 8.57329 	 -99.7458 	 
