34

S 	 -64.3392 	 15.3443 	 -117.083 	 
C 	 -64.1285 	 13.7911 	 -116.283 	 
C 	 -62.9272 	 13.837 	 -115.545 	 
C 	 -62.2767 	 15.12 	 -115.678 	 
C 	 -62.9106 	 16.1111 	 -116.476 	 
H 	 -61.334 	 15.4416 	 -115.171 	 
C 	 -62.5229 	 12.7184 	 -114.676 	 
H 	 -61.4923 	 12.3329 	 -114.912 	 
H 	 -63.1648 	 11.8747 	 -114.767 	 
C 	 -62.604 	 13.1473 	 -113.164 	 
H 	 -61.8888 	 13.9755 	 -113.004 	 
H 	 -63.6172 	 13.5159 	 -113.014 	 
C 	 -62.4118 	 12.1323 	 -112.023 	 
H 	 -63.3112 	 11.5492 	 -111.876 	 
H 	 -61.5158 	 11.5568 	 -112.155 	 
H 	 -62.2485 	 12.5454 	 -111.015 	 
S 	 -62.4632 	 18.2972 	 -118.28 	 
C 	 -61.8712 	 19.7251 	 -117.56 	 
C 	 -61.9581 	 19.7523 	 -116.18 	 
C 	 -62.3437 	 18.5006 	 -115.651 	 
C 	 -62.546 	 17.5025 	 -116.613 	 
H 	 -61.6973 	 20.603 	 -115.632 	 
C 	 -62.3516 	 18.2317 	 -114.174 	 
H 	 -61.3841 	 17.7294 	 -114.009 	 
H 	 -63.0505 	 17.4284 	 -114.029 	 
C 	 -62.691 	 19.3352 	 -113.182 	 
H 	 -63.7191 	 19.6 	 -113.414 	 
H 	 -61.9957 	 20.1634 	 -113.382 	 
C 	 -62.6504 	 19.064 	 -111.726 	 
H 	 -61.6403 	 18.9526 	 -111.331 	 
H 	 -63.2646 	 18.1462 	 -111.537 	 
H 	 -62.971 	 19.8895 	 -111.155 	 
H 	 -64.8583 	 12.936 	 -116.384 	 
H 	 -61.8205 	 20.7758 	 -117.974 	 
