34

S 	 -115.699 	 47.2702 	 -115.228 	 
C 	 -116.336 	 45.7944 	 -116.031 	 
C 	 -117.047 	 45.0313 	 -115.086 	 
C 	 -117.048 	 45.6286 	 -113.809 	 
C 	 -116.411 	 46.854 	 -113.718 	 
H 	 -117.487 	 45.2374 	 -112.904 	 
C 	 -117.713 	 43.6455 	 -115.277 	 
H 	 -117.671 	 43.401 	 -116.391 	 
H 	 -118.82 	 43.6382 	 -115.075 	 
C 	 -117.194 	 42.4658 	 -114.363 	 
H 	 -117.133 	 42.7505 	 -113.276 	 
H 	 -117.92 	 41.6123 	 -114.451 	 
C 	 -115.745 	 42.1319 	 -114.655 	 
H 	 -115.419 	 41.3271 	 -113.992 	 
H 	 -115.678 	 41.8011 	 -115.72 	 
H 	 -115.127 	 42.968 	 -114.464 	 
S 	 -114.651 	 48.6338 	 -112.632 	 
C 	 -115.021 	 49.3793 	 -111.05 	 
C 	 -116.13 	 48.8217 	 -110.462 	 
C 	 -116.785 	 47.8104 	 -111.276 	 
C 	 -116.09 	 47.6305 	 -112.514 	 
H 	 -116.382 	 49.092 	 -109.395 	 
C 	 -118.021 	 47.0136 	 -110.838 	 
H 	 -118.585 	 46.5122 	 -111.608 	 
H 	 -118.797 	 47.7195 	 -110.375 	 
C 	 -117.885 	 45.9571 	 -109.737 	 
H 	 -118.759 	 45.3008 	 -109.758 	 
H 	 -117.968 	 46.4132 	 -108.746 	 
C 	 -116.663 	 45.0149 	 -109.845 	 
H 	 -115.784 	 45.5494 	 -109.937 	 
H 	 -116.79 	 44.2508 	 -110.71 	 
H 	 -116.71 	 44.3304 	 -108.986 	 
H 	 -116.371 	 45.6074 	 -117.119 	 
H 	 -114.454 	 50.241 	 -110.647 	 
