34

S 	 -110.213 	 16.4527 	 -112.818 	 
C 	 -109.316 	 16.51 	 -114.347 	 
C 	 -110.17 	 16.121 	 -115.388 	 
C 	 -111.54 	 15.9708 	 -114.968 	 
C 	 -111.703 	 16.1002 	 -113.641 	 
H 	 -112.355 	 15.5802 	 -115.493 	 
C 	 -109.689 	 16.2608 	 -116.728 	 
H 	 -110.137 	 15.4403 	 -117.35 	 
H 	 -108.558 	 16.1705 	 -116.755 	 
C 	 -110.093 	 17.6928 	 -117.214 	 
H 	 -111.132 	 17.7912 	 -117.384 	 
H 	 -109.886 	 18.3177 	 -116.317 	 
C 	 -109.443 	 18.2369 	 -118.491 	 
H 	 -109.724 	 17.6435 	 -119.343 	 
H 	 -109.775 	 19.2463 	 -118.727 	 
H 	 -108.35 	 18.1168 	 -118.343 	 
S 	 -113.379 	 14.5363 	 -112.121 	 
C 	 -114.857 	 15.3198 	 -111.561 	 
C 	 -114.903 	 16.6757 	 -111.834 	 
C 	 -113.843 	 17.0156 	 -112.689 	 
C 	 -112.937 	 16.0449 	 -112.885 	 
H 	 -115.721 	 17.2251 	 -111.397 	 
C 	 -113.62 	 18.4264 	 -113.178 	 
H 	 -112.77 	 18.5003 	 -113.875 	 
H 	 -113.431 	 19.1138 	 -112.312 	 
C 	 -114.897 	 18.9962 	 -113.954 	 
H 	 -114.745 	 20.0676 	 -114.145 	 
H 	 -115.805 	 18.9257 	 -113.309 	 
C 	 -114.933 	 18.3123 	 -115.329 	 
H 	 -113.891 	 18.3434 	 -115.646 	 
H 	 -115.561 	 18.9279 	 -115.933 	 
H 	 -115.373 	 17.3025 	 -115.33 	 
H 	 -108.286 	 16.7637 	 -114.494 	 
H 	 -115.579 	 14.9588 	 -110.863 	 
