34

S 	 -93.0531 	 4.35903 	 -1.43473 	 
C 	 -91.5133 	 4.82287 	 -0.645198 	 
C 	 -91.7297 	 5.7316 	 0.395238 	 
C 	 -93.147 	 6.00873 	 0.579297 	 
C 	 -93.9525 	 5.40818 	 -0.381691 	 
H 	 -93.6538 	 6.64891 	 1.32793 	 
C 	 -90.6598 	 6.40478 	 1.23912 	 
H 	 -91.1142 	 7.15055 	 1.85116 	 
H 	 -89.9798 	 6.82783 	 0.482957 	 
C 	 -89.8277 	 5.31271 	 2.03445 	 
H 	 -90.582 	 4.92145 	 2.7412 	 
H 	 -89.5453 	 4.43197 	 1.37067 	 
C 	 -88.6074 	 5.86904 	 2.84783 	 
H 	 -88.4595 	 5.18203 	 3.64532 	 
H 	 -87.7206 	 5.96187 	 2.21039 	 
H 	 -88.8812 	 6.82687 	 3.33185 	 
S 	 -96.4817 	 4.39781 	 -0.606271 	 
C 	 -97.8791 	 5.47589 	 -0.708606 	 
C 	 -97.5091 	 6.79717 	 -0.764731 	 
C 	 -96.082 	 6.91307 	 -0.603418 	 
C 	 -95.3401 	 5.71667 	 -0.55747 	 
H 	 -98.2793 	 7.54752 	 -0.955075 	 
C 	 -95.5739 	 8.28958 	 -0.419918 	 
H 	 -95.717 	 8.78677 	 -1.34736 	 
H 	 -94.4815 	 8.27005 	 -0.300269 	 
C 	 -96.1932 	 9.08952 	 0.742054 	 
H 	 -97.303 	 9.10512 	 0.800561 	 
H 	 -95.9234 	 10.1563 	 0.789081 	 
C 	 -95.8174 	 8.45124 	 2.09226 	 
H 	 -94.7518 	 8.58556 	 2.29789 	 
H 	 -95.8482 	 7.35697 	 2.10156 	 
H 	 -96.3719 	 8.71856 	 2.92819 	 
H 	 -90.6311 	 4.28277 	 -0.804409 	 
H 	 -98.8771 	 5.29066 	 -0.991173 	 
