34

S 	 -126.345 	 19.9723 	 -21.7935 	 
C 	 -124.868 	 20.2273 	 -20.8808 	 
C 	 -124.037 	 21.1471 	 -21.5537 	 
C 	 -124.565 	 21.5843 	 -22.8019 	 
C 	 -125.797 	 21.0368 	 -23.0585 	 
H 	 -124.134 	 22.3465 	 -23.4193 	 
C 	 -122.736 	 21.5797 	 -20.932 	 
H 	 -121.911 	 20.8928 	 -21.0755 	 
H 	 -122.878 	 21.623 	 -19.8753 	 
C 	 -122.3 	 22.9837 	 -21.1888 	 
H 	 -121.998 	 23.228 	 -22.2441 	 
H 	 -123.158 	 23.7362 	 -21.0624 	 
C 	 -121.075 	 23.3799 	 -20.3776 	 
H 	 -121.211 	 23.5128 	 -19.2797 	 
H 	 -120.209 	 22.7716 	 -20.5694 	 
H 	 -120.908 	 24.4127 	 -20.6427 	 
S 	 -128.326 	 22.1044 	 -23.6438 	 
C 	 -128.821 	 22.3126 	 -25.2684 	 
C 	 -127.858 	 21.9245 	 -26.1626 	 
C 	 -126.664 	 21.468 	 -25.5503 	 
C 	 -126.745 	 21.4295 	 -24.14 	 
H 	 -127.992 	 22.0156 	 -27.1784 	 
C 	 -125.452 	 20.9214 	 -26.3823 	 
H 	 -124.592 	 21.4463 	 -26.0455 	 
H 	 -125.438 	 21.0626 	 -27.4514 	 
C 	 -125.274 	 19.4484 	 -26.1985 	 
H 	 -126.222 	 18.9671 	 -26.4919 	 
H 	 -125.17 	 19.1261 	 -25.1524 	 
C 	 -124.083 	 18.7692 	 -27.017 	 
H 	 -124.153 	 17.6538 	 -26.9794 	 
H 	 -123.202 	 18.8719 	 -26.4001 	 
H 	 -124.01 	 19.1347 	 -28.0115 	 
H 	 -124.606 	 19.5584 	 -20.0477 	 
H 	 -129.655 	 22.9888 	 -25.547 	 
