34

S 	 -119.66 	 13.7914 	 -13.9337 	 
C 	 -119.444 	 14.0825 	 -12.2865 	 
C 	 -119.599 	 12.9795 	 -11.4877 	 
C 	 -119.905 	 11.8174 	 -12.2917 	 
C 	 -120.173 	 12.1333 	 -13.5916 	 
H 	 -119.984 	 10.831 	 -12.0108 	 
C 	 -119.261 	 12.9271 	 -9.98013 	 
H 	 -119.522 	 11.9939 	 -9.51649 	 
H 	 -119.815 	 13.6661 	 -9.3437 	 
C 	 -117.785 	 13.1416 	 -9.76228 	 
H 	 -117.165 	 12.5402 	 -10.3698 	 
H 	 -117.504 	 14.191 	 -9.94994 	 
C 	 -117.517 	 12.929 	 -8.31741 	 
H 	 -116.471 	 13.1907 	 -7.98384 	 
H 	 -118.169 	 13.5665 	 -7.70674 	 
H 	 -117.557 	 11.8259 	 -8.04319 	 
S 	 -119.186 	 10.7819 	 -15.8023 	 
C 	 -120.055 	 9.29852 	 -16.2133 	 
C 	 -121.365 	 9.27233 	 -15.7529 	 
C 	 -121.567 	 10.2397 	 -14.7504 	 
C 	 -120.481 	 11.1466 	 -14.6519 	 
H 	 -122.076 	 8.49001 	 -15.9787 	 
C 	 -122.795 	 10.4143 	 -13.9532 	 
H 	 -122.79 	 11.4043 	 -13.4328 	 
H 	 -122.736 	 9.64121 	 -13.1793 	 
C 	 -124.172 	 10.4129 	 -14.6453 	 
H 	 -124.995 	 10.4815 	 -13.8807 	 
H 	 -124.302 	 9.50508 	 -15.1759 	 
C 	 -124.304 	 11.5038 	 -15.6864 	 
H 	 -124.509 	 12.5226 	 -15.2535 	 
H 	 -125.04 	 11.2714 	 -16.4402 	 
H 	 -123.388 	 11.6009 	 -16.2322 	 
H 	 -119.091 	 14.9215 	 -11.8324 	 
H 	 -119.673 	 8.56943 	 -16.9663 	 
