34

S 	 -59.0107 	 1.81186 	 -18.3844 	 
C 	 -59.9137 	 3.26344 	 -18.4176 	 
C 	 -60.8656 	 3.18085 	 -19.4198 	 
C 	 -60.7394 	 1.9828 	 -20.1551 	 
C 	 -59.79 	 1.09152 	 -19.7656 	 
H 	 -61.4509 	 1.73415 	 -20.9259 	 
C 	 -62.0235 	 4.14627 	 -19.6912 	 
H 	 -62.4745 	 4.60094 	 -18.7708 	 
H 	 -62.9073 	 3.527 	 -19.857 	 
C 	 -61.9094 	 5.19299 	 -20.7903 	 
H 	 -61.2431 	 5.9142 	 -20.3329 	 
H 	 -61.5751 	 4.75828 	 -21.8056 	 
C 	 -63.2368 	 5.8818 	 -21.0829 	 
H 	 -63.8643 	 5.16776 	 -21.5324 	 
H 	 -63.7109 	 6.19447 	 -20.1207 	 
H 	 -63.1669 	 6.70882 	 -21.7832 	 
S 	 -57.8598 	 -0.558246 	 -20.7341 	 
C 	 -58.4503 	 -1.92226 	 -21.7401 	 
C 	 -59.7832 	 -2.26691 	 -21.4802 	 
C 	 -60.444 	 -1.26346 	 -20.7148 	 
C 	 -59.5595 	 -0.243745 	 -20.2946 	 
H 	 -60.4057 	 -3.07767 	 -21.8526 	 
C 	 -61.8952 	 -1.3563 	 -20.2351 	 
H 	 -62.2016 	 -2.40293 	 -20.1437 	 
H 	 -62.5189 	 -0.883691 	 -20.9473 	 
C 	 -62.2346 	 -0.804519 	 -18.8621 	 
H 	 -63.3047 	 -0.815553 	 -18.6918 	 
H 	 -61.8877 	 0.223402 	 -18.7936 	 
C 	 -61.6801 	 -1.5394 	 -17.6503 	 
H 	 -61.7731 	 -0.890129 	 -16.7732 	 
H 	 -60.588 	 -1.78182 	 -17.9437 	 
H 	 -62.3633 	 -2.36165 	 -17.46 	 
H 	 -59.8544 	 4.14746 	 -17.8004 	 
H 	 -57.7826 	 -2.48251 	 -22.4142 	 
