34

S 	 -105.108 	 19.0494 	 -120.92 	 
C 	 -104.54 	 20.4157 	 -119.969 	 
C 	 -103.76 	 20.0659 	 -118.887 	 
C 	 -103.827 	 18.6301 	 -118.665 	 
C 	 -104.517 	 17.9238 	 -119.668 	 
H 	 -103.583 	 18.0849 	 -117.742 	 
C 	 -103.046 	 21.0497 	 -118.044 	 
H 	 -103.787 	 21.859 	 -117.849 	 
H 	 -102.164 	 21.5012 	 -118.551 	 
C 	 -102.602 	 20.5768 	 -116.647 	 
H 	 -101.928 	 19.7789 	 -116.664 	 
H 	 -102.021 	 21.3111 	 -116.175 	 
C 	 -103.821 	 20.2261 	 -115.751 	 
H 	 -104.566 	 19.6258 	 -116.319 	 
H 	 -103.5 	 19.6359 	 -114.971 	 
H 	 -104.235 	 21.1282 	 -115.24 	 
S 	 -103.43 	 15.8649 	 -120.939 	 
C 	 -103.809 	 14.2434 	 -120.444 	 
C 	 -104.772 	 14.1916 	 -119.438 	 
C 	 -105.282 	 15.4585 	 -119.099 	 
C 	 -104.632 	 16.4697 	 -119.818 	 
H 	 -105.011 	 13.25 	 -119.007 	 
C 	 -106.122 	 15.8009 	 -117.944 	 
H 	 -107.008 	 15.1482 	 -117.921 	 
H 	 -106.577 	 16.8245 	 -118.032 	 
C 	 -105.41 	 15.8055 	 -116.539 	 
H 	 -104.786 	 16.6863 	 -116.449 	 
H 	 -104.617 	 15.077 	 -116.606 	 
C 	 -106.393 	 15.6032 	 -115.362 	 
H 	 -107.347 	 15.8824 	 -115.645 	 
H 	 -106.065 	 16.1469 	 -114.458 	 
H 	 -106.482 	 14.561 	 -115.166 	 
H 	 -104.562 	 21.4588 	 -120.322 	 
H 	 -103.477 	 13.3362 	 -120.952 	 
