34

S 	 -78.1513 	 -22.0602 	 -51.5007 	 
C 	 -78.4518 	 -21.2086 	 -49.9875 	 
C 	 -79.1557 	 -20.0394 	 -50.3074 	 
C 	 -79.4806 	 -19.94 	 -51.6528 	 
C 	 -79.1964 	 -21.0572 	 -52.4312 	 
H 	 -80.1169 	 -19.1565 	 -52.1367 	 
C 	 -79.6269 	 -19.0682 	 -49.2635 	 
H 	 -79.8542 	 -19.5848 	 -48.3198 	 
H 	 -80.5389 	 -18.5919 	 -49.6841 	 
C 	 -78.5788 	 -17.9445 	 -48.9931 	 
H 	 -78.9842 	 -17.3837 	 -48.1432 	 
H 	 -77.5768 	 -18.3269 	 -48.6568 	 
C 	 -78.3979 	 -16.9777 	 -50.1691 	 
H 	 -77.9973 	 -17.4929 	 -51.0022 	 
H 	 -79.2916 	 -16.4727 	 -50.4851 	 
H 	 -77.6032 	 -16.2938 	 -49.8394 	 
S 	 -81.0649 	 -21.0889 	 -54.5221 	 
C 	 -80.5793 	 -21.0143 	 -56.1436 	 
C 	 -79.2023 	 -21.053 	 -56.235 	 
C 	 -78.5066 	 -21.1826 	 -54.9752 	 
C 	 -79.384 	 -21.1322 	 -53.8845 	 
H 	 -78.7269 	 -21 	 -57.2127 	 
C 	 -76.9856 	 -21.1193 	 -54.9799 	 
H 	 -76.7564 	 -21.8907 	 -55.7264 	 
H 	 -76.606 	 -21.5851 	 -54.042 	 
C 	 -76.3875 	 -19.7546 	 -55.061 	 
H 	 -76.8392 	 -19.2493 	 -55.9038 	 
H 	 -75.3134 	 -19.765 	 -55.2811 	 
C 	 -76.5541 	 -18.9077 	 -53.7178 	 
H 	 -75.9862 	 -19.3389 	 -52.9517 	 
H 	 -77.5871 	 -18.7958 	 -53.4827 	 
H 	 -76.2676 	 -17.8544 	 -53.829 	 
H 	 -78.1497 	 -21.4803 	 -49.0481 	 
H 	 -81.2236 	 -20.9202 	 -57.0416 	 
