34

S 	 -133.82 	 26.2793 	 -16.8622 	 
C 	 -134.772 	 25.244 	 -17.949 	 
C 	 -135.451 	 26.0155 	 -18.8773 	 
C 	 -135.287 	 27.4193 	 -18.614 	 
C 	 -134.551 	 27.7137 	 -17.5339 	 
H 	 -135.846 	 28.231 	 -19.0829 	 
C 	 -136.362 	 25.4968 	 -19.9718 	 
H 	 -137.4 	 25.71 	 -19.683 	 
H 	 -136.274 	 24.3975 	 -19.9313 	 
C 	 -136.128 	 25.9993 	 -21.4442 	 
H 	 -136.083 	 27.0907 	 -21.4527 	 
H 	 -135.24 	 25.493 	 -21.6988 	 
C 	 -137.234 	 25.5907 	 -22.3311 	 
H 	 -137.35 	 24.5277 	 -22.4319 	 
H 	 -138.203 	 26.0667 	 -22.0023 	 
H 	 -137.012 	 25.8172 	 -23.3803 	 
S 	 -134.193 	 29.0583 	 -15.1578 	 
C 	 -134.231 	 30.7649 	 -15.2399 	 
C 	 -134.218 	 31.2718 	 -16.497 	 
C 	 -134.356 	 30.3265 	 -17.4869 	 
C 	 -134.366 	 29.0056 	 -16.9435 	 
H 	 -134.235 	 32.359 	 -16.596 	 
C 	 -134.573 	 30.8115 	 -18.8909 	 
H 	 -134.223 	 29.9151 	 -19.4522 	 
H 	 -133.94 	 31.6739 	 -19.1049 	 
C 	 -136.038 	 31.2121 	 -19.2491 	 
H 	 -136.288 	 32.1058 	 -18.6989 	 
H 	 -136.722 	 30.3536 	 -18.9925 	 
C 	 -136.145 	 31.4972 	 -20.7858 	 
H 	 -135.794 	 30.6396 	 -21.3983 	 
H 	 -135.471 	 32.3334 	 -20.9391 	 
H 	 -137.177 	 31.7582 	 -21.112 	 
H 	 -134.758 	 24.1619 	 -17.88 	 
H 	 -134.181 	 31.4228 	 -14.3925 	 
