34

S 	 -43.8796 	 -1.26067 	 12.121 	 
C 	 -43.616 	 -0.160331 	 13.4118 	 
C 	 -43.7053 	 -0.875841 	 14.6108 	 
C 	 -44.0024 	 -2.26956 	 14.5158 	 
C 	 -44.1714 	 -2.59055 	 13.1915 	 
H 	 -44.1314 	 -3.01494 	 15.3282 	 
C 	 -43.3917 	 -0.269503 	 15.9359 	 
H 	 -42.3412 	 -0.0971902 	 15.9293 	 
H 	 -43.4586 	 -1.10053 	 16.6743 	 
C 	 -44.3465 	 0.838553 	 16.427 	 
H 	 -44.0574 	 1.77055 	 16.0206 	 
H 	 -45.4082 	 0.668436 	 16.1478 	 
C 	 -44.2802 	 1.13074 	 17.9384 	 
H 	 -44.6079 	 0.203957 	 18.4063 	 
H 	 -43.2912 	 1.3873 	 18.2207 	 
H 	 -45.028 	 1.82131 	 18.3145 	 
S 	 -43.4048 	 -4.55274 	 11.3749 	 
C 	 -44.3889 	 -5.95191 	 11.09 	 
C 	 -45.4339 	 -5.9247 	 12.031 	 
C 	 -45.4435 	 -4.76149 	 12.9439 	 
C 	 -44.4503 	 -3.87924 	 12.663 	 
H 	 -46.1509 	 -6.71895 	 11.9663 	 
C 	 -46.6182 	 -4.5736 	 13.954 	 
H 	 -47.543 	 -4.72684 	 13.3276 	 
H 	 -46.6242 	 -3.53926 	 14.1406 	 
C 	 -46.5756 	 -5.32145 	 15.2704 	 
H 	 -45.5029 	 -5.37266 	 15.4989 	 
H 	 -47.0331 	 -6.31941 	 15.1481 	 
C 	 -47.473 	 -4.71841 	 16.4817 	 
H 	 -48.5331 	 -4.86682 	 16.2543 	 
H 	 -47.2422 	 -3.6173 	 16.5953 	 
H 	 -47.3343 	 -5.18956 	 17.4697 	 
H 	 -43.4366 	 0.89873 	 13.3438 	 
H 	 -44.1537 	 -6.73608 	 10.3618 	 
