34

S 	 -127.232 	 67.988 	 -63.5866 	 
C 	 -125.972 	 68.8834 	 -62.6499 	 
C 	 -126.597 	 69.9195 	 -61.9506 	 
C 	 -128.022 	 69.949 	 -62.1444 	 
C 	 -128.559 	 68.8635 	 -62.8448 	 
H 	 -128.608 	 70.7208 	 -61.7613 	 
C 	 -125.869 	 70.9694 	 -61.1703 	 
H 	 -124.831 	 70.6952 	 -60.8779 	 
H 	 -126.252 	 71.0553 	 -60.1389 	 
C 	 -125.697 	 72.4102 	 -61.8132 	 
H 	 -126.73 	 72.8108 	 -61.9831 	 
H 	 -125.205 	 73.0393 	 -61.0495 	 
C 	 -124.836 	 72.5588 	 -63.1061 	 
H 	 -124.624 	 73.6019 	 -63.2869 	 
H 	 -123.967 	 71.8371 	 -63.0893 	 
H 	 -125.342 	 72.2707 	 -64.0226 	 
S 	 -130.495 	 66.9891 	 -62.6624 	 
C 	 -132.17 	 67.3099 	 -63.0708 	 
C 	 -132.276 	 68.6539 	 -63.5548 	 
C 	 -131.013 	 69.3521 	 -63.5897 	 
C 	 -129.977 	 68.5888 	 -63.0892 	 
H 	 -133.249 	 69.0491 	 -63.8423 	 
C 	 -130.789 	 70.8132 	 -64.0738 	 
H 	 -129.719 	 70.9928 	 -64.2588 	 
H 	 -131.208 	 71.3491 	 -63.2404 	 
C 	 -131.571 	 71.1599 	 -65.3695 	 
H 	 -131.27 	 72.1725 	 -65.6233 	 
H 	 -132.636 	 71.2892 	 -64.9668 	 
C 	 -131.355 	 70.2232 	 -66.5429 	 
H 	 -131.699 	 70.5456 	 -67.549 	 
H 	 -131.742 	 69.1657 	 -66.3878 	 
H 	 -130.289 	 70.1525 	 -66.5987 	 
H 	 -124.903 	 68.9014 	 -62.8117 	 
H 	 -132.996 	 66.6899 	 -62.8274 	 
