34

S 	 -145.747 	 4.35625 	 13.8594 	 
C 	 -145.376 	 3.72549 	 12.2167 	 
C 	 -144.023 	 3.74233 	 11.9891 	 
C 	 -143.35 	 4.2444 	 13.1301 	 
C 	 -144.051 	 4.64809 	 14.2552 	 
H 	 -142.269 	 4.54817 	 13.2344 	 
C 	 -143.362 	 3.29345 	 10.6532 	 
H 	 -142.412 	 2.89185 	 10.9626 	 
H 	 -143.175 	 4.11537 	 9.88928 	 
C 	 -144.026 	 2.04666 	 10.0131 	 
H 	 -144.24 	 1.38011 	 10.7285 	 
H 	 -144.889 	 2.5832 	 9.64396 	 
C 	 -143.17 	 1.44892 	 8.86446 	 
H 	 -143.8 	 0.895579 	 8.20503 	 
H 	 -142.74 	 2.21592 	 8.19387 	 
H 	 -142.349 	 0.908535 	 9.25333 	 
S 	 -142.643 	 3.87299 	 16.6202 	 
C 	 -142.375 	 5.1556 	 17.7221 	 
C 	 -143.211 	 6.24338 	 17.5237 	 
C 	 -143.875 	 6.13746 	 16.3268 	 
C 	 -143.584 	 5.00406 	 15.6011 	 
H 	 -143.271 	 7.01098 	 18.24 	 
C 	 -144.95 	 7.2201 	 16.0541 	 
H 	 -145.262 	 7.56522 	 17.0575 	 
H 	 -145.839 	 6.81099 	 15.5698 	 
C 	 -144.368 	 8.37756 	 15.2565 	 
H 	 -143.984 	 8.05624 	 14.2397 	 
H 	 -143.486 	 8.63511 	 15.9157 	 
C 	 -145.277 	 9.57867 	 14.9715 	 
H 	 -145.397 	 10.0308 	 15.9169 	 
H 	 -146.234 	 9.32286 	 14.4845 	 
H 	 -144.776 	 10.4197 	 14.4425 	 
H 	 -146.1 	 3.34242 	 11.534 	 
H 	 -141.924 	 5.15922 	 18.7242 	 
