34

S 	 -48.2186 	 22.8403 	 30.6224 	 
C 	 -49.3237 	 24.228 	 30.7951 	 
C 	 -48.7021 	 25.2773 	 31.3311 	 
C 	 -47.2736 	 25.0441 	 31.4403 	 
C 	 -46.8447 	 23.7804 	 31.0681 	 
H 	 -46.5689 	 25.8486 	 31.7066 	 
C 	 -49.3247 	 26.5581 	 31.7228 	 
H 	 -48.6234 	 27.3272 	 31.5956 	 
H 	 -49.5702 	 26.6201 	 32.7865 	 
C 	 -50.6507 	 27.0181 	 30.9128 	 
H 	 -50.3584 	 27.2226 	 29.9516 	 
H 	 -51.3746 	 26.1589 	 30.7805 	 
C 	 -51.4316 	 28.133 	 31.4592 	 
H 	 -51.6516 	 28.0278 	 32.497 	 
H 	 -51.0406 	 29.1266 	 31.3065 	 
H 	 -52.4637 	 28.1111 	 31.0024 	 
S 	 -44.4399 	 23.9698 	 29.9722 	 
C 	 -43.0278 	 23.1706 	 30.693 	 
C 	 -43.4196 	 22.3169 	 31.6337 	 
C 	 -44.8033 	 22.3485 	 31.8797 	 
C 	 -45.4854 	 23.2142 	 31.1056 	 
H 	 -42.682 	 21.8451 	 32.2495 	 
C 	 -45.4264 	 21.4626 	 32.9118 	 
H 	 -46.3187 	 22.0034 	 33.2393 	 
H 	 -44.7295 	 21.4448 	 33.7727 	 
C 	 -45.879 	 20.081 	 32.5045 	 
H 	 -44.982 	 19.6718 	 32.0851 	 
H 	 -46.5053 	 20.1743 	 31.7039 	 
C 	 -46.5821 	 19.2407 	 33.5868 	 
H 	 -45.7128 	 18.9026 	 34.1755 	 
H 	 -47.0512 	 18.4422 	 33.0332 	 
H 	 -47.419 	 19.7856 	 34.0578 	 
H 	 -50.4071 	 24.0788 	 30.7972 	 
H 	 -42.0492 	 23.2087 	 30.3403 	 
