34

S 	 -87.998 	 -4.69027 	 -119.213 	 
C 	 -87.2156 	 -5.49848 	 -120.568 	 
C 	 -87.4248 	 -6.90668 	 -120.486 	 
C 	 -88.3466 	 -7.17705 	 -119.435 	 
C 	 -88.8622 	 -6.09734 	 -118.73 	 
H 	 -88.7328 	 -8.15625 	 -119.194 	 
C 	 -86.9493 	 -8.01939 	 -121.328 	 
H 	 -86.6611 	 -8.87333 	 -120.661 	 
H 	 -85.8795 	 -7.82285 	 -121.561 	 
C 	 -87.8509 	 -8.482 	 -122.541 	 
H 	 -88.8671 	 -8.71492 	 -122.181 	 
H 	 -87.9873 	 -7.58262 	 -123.14 	 
C 	 -87.3459 	 -9.72807 	 -123.345 	 
H 	 -87.0492 	 -10.5788 	 -122.75 	 
H 	 -87.9925 	 -10.0142 	 -124.171 	 
H 	 -86.5334 	 -9.60836 	 -123.981 	 
S 	 -89.8431 	 -4.64113 	 -116.62 	 
C 	 -91.3219 	 -5.09062 	 -115.886 	 
C 	 -91.678 	 -6.39835 	 -116.206 	 
C 	 -90.749 	 -6.99687 	 -117.102 	 
C 	 -89.805 	 -6.08966 	 -117.637 	 
H 	 -92.6028 	 -6.7112 	 -115.842 	 
C 	 -90.9627 	 -8.3855 	 -117.67 	 
H 	 -90.1275 	 -9.01096 	 -117.308 	 
H 	 -90.798 	 -8.25619 	 -118.753 	 
C 	 -92.3018 	 -9.05383 	 -117.27 	 
H 	 -93.0678 	 -8.40694 	 -117.608 	 
H 	 -92.3501 	 -9.22916 	 -116.239 	 
C 	 -92.6481 	 -10.4966 	 -117.775 	 
H 	 -93.6894 	 -10.8451 	 -117.54 	 
H 	 -92.0167 	 -11.2472 	 -117.335 	 
H 	 -92.4079 	 -10.5978 	 -118.789 	 
H 	 -86.7886 	 -5.01449 	 -121.42 	 
H 	 -91.9276 	 -4.36384 	 -115.395 	 
