34

S 	 -61.9515 	 4.4143 	 -18.5345 	 
C 	 -63.5197 	 4.83826 	 -19.1141 	 
C 	 -63.846 	 4.15242 	 -20.2749 	 
C 	 -62.8522 	 3.15949 	 -20.5814 	 
C 	 -61.7074 	 3.22819 	 -19.8205 	 
H 	 -62.7781 	 2.48682 	 -21.391 	 
C 	 -65.2561 	 4.17012 	 -20.9317 	 
H 	 -66.0282 	 4.20858 	 -20.2062 	 
H 	 -65.3918 	 3.25312 	 -21.4188 	 
C 	 -65.4037 	 5.29926 	 -22.0143 	 
H 	 -65.458 	 6.31035 	 -21.5209 	 
H 	 -64.4236 	 5.3424 	 -22.5825 	 
C 	 -66.5242 	 5.21659 	 -23.06 	 
H 	 -67.4417 	 5.03982 	 -22.4763 	 
H 	 -66.6565 	 6.07325 	 -23.5691 	 
H 	 -66.3926 	 4.36497 	 -23.7712 	 
S 	 -59.7779 	 1.72709 	 -18.4817 	 
C 	 -58.5787 	 0.887747 	 -19.4817 	 
C 	 -58.7249 	 1.1886 	 -20.8187 	 
C 	 -59.8312 	 2.03455 	 -21.1165 	 
C 	 -60.526 	 2.4031 	 -19.9563 	 
H 	 -58.0015 	 0.733289 	 -21.4647 	 
C 	 -60.1233 	 2.37518 	 -22.5553 	 
H 	 -59.1732 	 2.7776 	 -23.0407 	 
H 	 -60.847 	 3.18388 	 -22.6122 	 
C 	 -60.7018 	 1.2017 	 -23.4298 	 
H 	 -61.648 	 1.04648 	 -22.9725 	 
H 	 -60.1232 	 0.256617 	 -23.3611 	 
C 	 -61.012 	 1.52806 	 -24.9521 	 
H 	 -60.112 	 2.02862 	 -25.2798 	 
H 	 -61.7953 	 2.18428 	 -25.1144 	 
H 	 -61.1768 	 0.660802 	 -25.5388 	 
H 	 -64.2023 	 5.63393 	 -18.6108 	 
H 	 -57.6834 	 0.388355 	 -19.1827 	 
