34

S 	 -110.573 	 20.155 	 -121.867 	 
C 	 -112.169 	 19.4762 	 -121.733 	 
C 	 -112.427 	 18.4905 	 -122.679 	 
C 	 -111.323 	 18.4006 	 -123.57 	 
C 	 -110.197 	 19.1956 	 -123.252 	 
H 	 -111.141 	 17.7362 	 -124.387 	 
C 	 -113.743 	 17.8188 	 -123.001 	 
H 	 -113.599 	 17.2471 	 -123.973 	 
H 	 -114.382 	 18.6198 	 -123.324 	 
C 	 -114.364 	 16.9379 	 -121.908 	 
H 	 -114.334 	 17.3579 	 -120.918 	 
H 	 -115.407 	 16.802 	 -122.113 	 
C 	 -113.857 	 15.5454 	 -121.903 	 
H 	 -113.924 	 14.9969 	 -122.854 	 
H 	 -112.812 	 15.5636 	 -121.534 	 
H 	 -114.404 	 14.9189 	 -121.199 	 
S 	 -107.53 	 19.9409 	 -123.032 	 
C 	 -106.482 	 19.8967 	 -124.39 	 
C 	 -107.227 	 19.6088 	 -125.537 	 
C 	 -108.589 	 19.2386 	 -125.32 	 
C 	 -108.965 	 19.4129 	 -123.977 	 
H 	 -106.585 	 19.5817 	 -126.397 	 
C 	 -109.352 	 18.6159 	 -126.507 	 
H 	 -109.18 	 19.1546 	 -127.436 	 
H 	 -110.437 	 18.8366 	 -126.443 	 
C 	 -108.92 	 17.2048 	 -126.779 	 
H 	 -109.176 	 16.5675 	 -125.962 	 
H 	 -107.853 	 17.1239 	 -126.921 	 
C 	 -109.53 	 16.6109 	 -127.998 	 
H 	 -110.584 	 16.5515 	 -127.839 	 
H 	 -109.13 	 15.5961 	 -128.191 	 
H 	 -109.344 	 17.17 	 -128.921 	 
H 	 -112.985 	 19.7473 	 -121.121 	 
H 	 -105.423 	 20.1351 	 -124.37 	 
