34

S 	 -39.4166 	 -8.38708 	 19.227 	 
C 	 -39.185 	 -9.9747 	 19.9412 	 
C 	 -39.6581 	 -10.9666 	 19.1467 	 
C 	 -40.0235 	 -10.5554 	 17.8655 	 
C 	 -39.9024 	 -9.17602 	 17.6947 	 
H 	 -40.3809 	 -11.1947 	 17.0554 	 
C 	 -39.9189 	 -12.38 	 19.6202 	 
H 	 -41.0098 	 -12.4156 	 19.8534 	 
H 	 -39.4175 	 -12.4274 	 20.5246 	 
C 	 -39.5213 	 -13.5596 	 18.7782 	 
H 	 -39.6362 	 -14.4346 	 19.4486 	 
H 	 -40.3462 	 -13.6564 	 18.0692 	 
C 	 -38.1268 	 -13.4904 	 18.3395 	 
H 	 -37.519 	 -13.4396 	 19.2784 	 
H 	 -37.8412 	 -14.3969 	 17.9314 	 
H 	 -37.9401 	 -12.6756 	 17.6437 	 
S 	 -41.7371 	 -7.35996 	 16.7249 	 
C 	 -41.8517 	 -7.10454 	 14.9789 	 
C 	 -41.0162 	 -7.91737 	 14.3234 	 
C 	 -40.1307 	 -8.55687 	 15.1914 	 
C 	 -40.4004 	 -8.41767 	 16.5249 	 
H 	 -41.2749 	 -8.07127 	 13.2479 	 
C 	 -39.1602 	 -9.54751 	 14.7296 	 
H 	 -39.6015 	 -10.5171 	 14.9489 	 
H 	 -38.2865 	 -9.46684 	 15.3184 	 
C 	 -38.7201 	 -9.46604 	 13.2473 	 
H 	 -39.6076 	 -9.57789 	 12.5985 	 
H 	 -37.9947 	 -10.3163 	 12.9483 	 
C 	 -37.8463 	 -8.20427 	 12.9067 	 
H 	 -36.8788 	 -8.41917 	 13.3776 	 
H 	 -38.3448 	 -7.25536 	 13.2174 	 
H 	 -37.7424 	 -8.12437 	 11.7625 	 
H 	 -38.8453 	 -10.1293 	 20.9552 	 
H 	 -42.736 	 -6.72573 	 14.5254 	 
