34

S 	 -53.4118 	 23.0634 	 29.7895 	 
C 	 -53.7503 	 24.7442 	 30.079 	 
C 	 -52.9248 	 25.5587 	 29.3068 	 
C 	 -52.0509 	 24.7959 	 28.4543 	 
C 	 -52.0839 	 23.4103 	 28.6587 	 
H 	 -51.4368 	 25.2816 	 27.7658 	 
C 	 -53.0003 	 27.0744 	 29.2165 	 
H 	 -54.05 	 27.279 	 29.3672 	 
H 	 -52.7258 	 27.3291 	 28.1772 	 
C 	 -52.3084 	 27.9131 	 30.345 	 
H 	 -52.774 	 28.9457 	 30.3638 	 
H 	 -52.4108 	 27.5345 	 31.3478 	 
C 	 -50.8599 	 27.9855 	 29.945 	 
H 	 -50.716 	 28.5457 	 29.0415 	 
H 	 -50.2596 	 28.5321 	 30.6829 	 
H 	 -50.3701 	 26.9569 	 29.8309 	 
S 	 -51.7879 	 20.7474 	 27.8416 	 
C 	 -50.2013 	 20.1558 	 27.2994 	 
C 	 -49.3145 	 21.2548 	 27.1005 	 
C 	 -49.8531 	 22.4758 	 27.5361 	 
C 	 -51.2076 	 22.4118 	 27.9809 	 
H 	 -48.3344 	 21.196 	 26.6949 	 
C 	 -48.925 	 23.6901 	 27.6709 	 
H 	 -49.5798 	 24.4364 	 28.0562 	 
H 	 -48.494 	 23.9562 	 26.7416 	 
C 	 -47.7576 	 23.4895 	 28.6618 	 
H 	 -47.0724 	 22.7029 	 28.2077 	 
H 	 -48.1122 	 23.0979 	 29.6024 	 
C 	 -46.9261 	 24.8149 	 28.8988 	 
H 	 -46.3163 	 24.9743 	 27.9694 	 
H 	 -46.1629 	 24.5719 	 29.7348 	 
H 	 -47.563 	 25.6916 	 29.1595 	 
H 	 -54.5567 	 25.1798 	 30.644 	 
H 	 -50.0039 	 19.1364 	 26.9681 	 
