34

S 	 -43.7039 	 -47.7763 	 -72.9976 	 
C 	 -43.7412 	 -46.023 	 -73.0635 	 
C 	 -44.7986 	 -45.5074 	 -72.3967 	 
C 	 -45.604 	 -46.5861 	 -71.8418 	 
C 	 -45.1047 	 -47.8573 	 -71.9943 	 
H 	 -46.5524 	 -46.5126 	 -71.3844 	 
C 	 -45.1887 	 -44.0575 	 -72.3663 	 
H 	 -44.3778 	 -43.5776 	 -72.9458 	 
H 	 -45.025 	 -43.6523 	 -71.389 	 
C 	 -46.5116 	 -43.5079 	 -72.8305 	 
H 	 -46.4449 	 -42.4509 	 -72.8761 	 
H 	 -46.7488 	 -43.8383 	 -73.8666 	 
C 	 -47.7263 	 -43.9863 	 -71.9269 	 
H 	 -47.5065 	 -43.9915 	 -70.8312 	 
H 	 -48.407 	 -43.2335 	 -72.1487 	 
H 	 -48.0648 	 -44.9636 	 -72.2695 	 
S 	 -44.5239 	 -50.2021 	 -70.7042 	 
C 	 -45.7714 	 -51.1145 	 -69.9535 	 
C 	 -46.9818 	 -50.719 	 -70.4291 	 
C 	 -46.8927 	 -49.5127 	 -71.193 	 
C 	 -45.5967 	 -49.0451 	 -71.3583 	 
H 	 -47.8956 	 -51.3691 	 -70.2228 	 
C 	 -48.0897 	 -48.7559 	 -71.704 	 
H 	 -47.7219 	 -48.0527 	 -72.4158 	 
H 	 -48.5529 	 -48.2543 	 -70.8558 	 
C 	 -49.1576 	 -49.505 	 -72.4866 	 
H 	 -49.6768 	 -50.1803 	 -71.8094 	 
H 	 -48.7995 	 -50.0872 	 -73.3417 	 
C 	 -50.2484 	 -48.5904 	 -72.9658 	 
H 	 -51.0995 	 -49.0758 	 -73.3968 	 
H 	 -49.9052 	 -47.8018 	 -73.6082 	 
H 	 -50.7147 	 -48.0539 	 -72.2063 	 
H 	 -43.0181 	 -45.3328 	 -73.4926 	 
H 	 -45.6979 	 -51.9424 	 -69.3758 	 
