34

S 	 -63.6728 	 15.1649 	 -90.2918 	 
C 	 -64.3982 	 16.7085 	 -90.253 	 
C 	 -65.3987 	 16.7729 	 -89.2887 	 
C 	 -65.4006 	 15.5367 	 -88.5279 	 
C 	 -64.5412 	 14.5467 	 -88.9547 	 
H 	 -66.1115 	 15.3701 	 -87.6667 	 
C 	 -66.2846 	 17.926 	 -88.9991 	 
H 	 -66.8024 	 17.8623 	 -89.903 	 
H 	 -65.7818 	 18.7985 	 -88.7729 	 
C 	 -67.3843 	 17.7864 	 -87.9096 	 
H 	 -67.0191 	 17.2052 	 -87.0325 	 
H 	 -67.6108 	 18.8157 	 -87.5417 	 
C 	 -68.6738 	 16.9675 	 -88.3156 	 
H 	 -69.2514 	 16.681 	 -87.4526 	 
H 	 -69.3464 	 17.5925 	 -88.9363 	 
H 	 -68.3184 	 16.0753 	 -88.8073 	 
S 	 -64.7848 	 11.8132 	 -89.7493 	 
C 	 -63.8053 	 10.8706 	 -88.6633 	 
C 	 -63.619 	 11.379 	 -87.416 	 
C 	 -63.8504 	 12.7178 	 -87.3355 	 
C 	 -64.414 	 13.1729 	 -88.5754 	 
H 	 -63.2253 	 10.6145 	 -86.7115 	 
C 	 -63.468 	 13.4995 	 -86.0678 	 
H 	 -63.9331 	 13.0875 	 -85.1167 	 
H 	 -63.9662 	 14.5337 	 -86.1598 	 
C 	 -61.9513 	 13.554 	 -85.8359 	 
H 	 -61.5073 	 14.0387 	 -86.7486 	 
H 	 -61.5926 	 12.4511 	 -85.7567 	 
C 	 -61.7692 	 14.2387 	 -84.5446 	 
H 	 -62.0446 	 13.609 	 -83.7124 	 
H 	 -62.3634 	 15.1351 	 -84.4635 	 
H 	 -60.7592 	 14.542 	 -84.3241 	 
H 	 -64.1153 	 17.5584 	 -90.9424 	 
H 	 -63.5301 	 9.88572 	 -88.6776 	 
