34

S 	 -109.951 	 53.3747 	 -78.1692 	 
C 	 -110.801 	 53.4235 	 -79.6812 	 
C 	 -110.198 	 54.2608 	 -80.5842 	 
C 	 -108.995 	 54.8228 	 -80.1196 	 
C 	 -108.814 	 54.5892 	 -78.7602 	 
H 	 -108.374 	 55.4554 	 -80.7183 	 
C 	 -110.864 	 54.6204 	 -81.965 	 
H 	 -111.102 	 55.6788 	 -81.9173 	 
H 	 -111.79 	 54.0998 	 -81.9477 	 
C 	 -109.969 	 54.295 	 -83.2064 	 
H 	 -108.997 	 54.8003 	 -83.0384 	 
H 	 -109.925 	 53.2515 	 -83.2015 	 
C 	 -110.641 	 54.7828 	 -84.4965 	 
H 	 -110.648 	 55.8731 	 -84.4904 	 
H 	 -109.966 	 54.4677 	 -85.2737 	 
H 	 -111.63 	 54.3635 	 -84.7629 	 
S 	 -106.902 	 54.1174 	 -76.775 	 
C 	 -105.853 	 55.3704 	 -76.3559 	 
C 	 -106.253 	 56.5536 	 -76.8209 	 
C 	 -107.312 	 56.4958 	 -77.8285 	 
C 	 -107.837 	 55.2064 	 -77.8562 	 
H 	 -105.561 	 57.3266 	 -76.576 	 
C 	 -107.675 	 57.6624 	 -78.7042 	 
H 	 -107.39 	 57.2942 	 -79.6929 	 
H 	 -106.933 	 58.4344 	 -78.519 	 
C 	 -109.039 	 58.1951 	 -78.7835 	 
H 	 -109.643 	 57.3374 	 -79.1957 	 
H 	 -109.119 	 58.9182 	 -79.6216 	 
C 	 -109.487 	 58.7378 	 -77.3495 	 
H 	 -110.48 	 59.3526 	 -77.3536 	 
H 	 -108.601 	 59.3034 	 -76.9055 	 
H 	 -109.587 	 57.9551 	 -76.6182 	 
H 	 -111.679 	 52.8696 	 -79.8912 	 
H 	 -105.034 	 55.3343 	 -75.6592 	 
