34

S 	 -73.237 	 7.38465 	 -112.092 	 
C 	 -73.7038 	 7.32944 	 -110.395 	 
C 	 -72.8319 	 8.16312 	 -109.611 	 
C 	 -71.6732 	 8.56656 	 -110.391 	 
C 	 -71.755 	 8.24027 	 -111.759 	 
H 	 -70.8498 	 9.17624 	 -110.047 	 
C 	 -72.9235 	 8.42041 	 -108.062 	 
H 	 -72.5699 	 9.44331 	 -107.713 	 
H 	 -72.2724 	 7.69259 	 -107.659 	 
C 	 -74.3132 	 8.0071 	 -107.562 	 
H 	 -75.0265 	 8.50018 	 -108.173 	 
H 	 -74.4764 	 6.87336 	 -107.639 	 
C 	 -74.5626 	 8.37257 	 -106.107 	 
H 	 -75.6669 	 8.37839 	 -105.951 	 
H 	 -74.1338 	 7.6907 	 -105.428 	 
H 	 -74.2018 	 9.31983 	 -105.869 	 
S 	 -71.8355 	 9.49314 	 -114.32 	 
C 	 -70.6183 	 10.612 	 -114.764 	 
C 	 -69.5721 	 10.6349 	 -113.83 	 
C 	 -69.724 	 9.66017 	 -112.786 	 
C 	 -70.9874 	 8.98715 	 -112.818 	 
H 	 -68.732 	 11.2421 	 -113.92 	 
C 	 -68.6402 	 9.47154 	 -111.763 	 
H 	 -69.0558 	 8.97236 	 -110.9 	 
H 	 -68.3314 	 10.4122 	 -111.389 	 
C 	 -67.3945 	 8.67425 	 -112.212 	 
H 	 -67.6846 	 7.68817 	 -112.502 	 
H 	 -66.6661 	 8.5727 	 -111.464 	 
C 	 -66.6264 	 9.2414 	 -113.359 	 
H 	 -66.6726 	 10.3415 	 -113.445 	 
H 	 -66.8473 	 8.85901 	 -114.341 	 
H 	 -65.556 	 8.91558 	 -113.317 	 
H 	 -74.6274 	 6.89744 	 -110.075 	 
H 	 -70.5213 	 11.0275 	 -115.765 	 
