34

S 	 -48.7928 	 8.0792 	 -19.4906 	 
C 	 -48.869 	 7.27451 	 -17.9963 	 
C 	 -48.3626 	 8.09113 	 -16.9268 	 
C 	 -47.8575 	 9.36739 	 -17.353 	 
C 	 -47.9351 	 9.48451 	 -18.7049 	 
H 	 -47.355 	 10.2826 	 -16.8325 	 
C 	 -48.3155 	 7.78694 	 -15.3929 	 
H 	 -49.1544 	 7.21185 	 -15.0695 	 
H 	 -48.3853 	 8.74557 	 -14.7888 	 
C 	 -47.0017 	 7.09906 	 -14.9792 	 
H 	 -46.1601 	 7.72589 	 -15.2504 	 
H 	 -46.9041 	 7.26841 	 -13.8753 	 
C 	 -46.9371 	 5.69559 	 -15.2532 	 
H 	 -46.0559 	 5.35267 	 -14.7424 	 
H 	 -47.7027 	 5.10806 	 -14.7528 	 
H 	 -46.85 	 5.42326 	 -16.2725 	 
S 	 -46.5015 	 10.3308 	 -20.8567 	 
C 	 -46.3411 	 12.0573 	 -21.1871 	 
C 	 -46.8091 	 12.8195 	 -20.1498 	 
C 	 -47.5419 	 12.0314 	 -19.2267 	 
C 	 -47.5707 	 10.6669 	 -19.4935 	 
H 	 -46.6051 	 13.865 	 -20.2423 	 
C 	 -48.202 	 12.7967 	 -18.0141 	 
H 	 -48.2518 	 13.8484 	 -18.3433 	 
H 	 -47.5426 	 12.7045 	 -17.1551 	 
C 	 -49.6794 	 12.4738 	 -17.635 	 
H 	 -49.9001 	 11.438 	 -17.3346 	 
H 	 -50.2488 	 12.6072 	 -18.5268 	 
C 	 -50.3595 	 13.4864 	 -16.6391 	 
H 	 -49.8135 	 13.555 	 -15.7219 	 
H 	 -51.3242 	 13.1659 	 -16.4126 	 
H 	 -50.48 	 14.5064 	 -17.0409 	 
H 	 -49.3764 	 6.37575 	 -17.827 	 
H 	 -45.7023 	 12.4683 	 -21.9659 	 
