34

S 	 -101.332 	 -2.85802 	 -110.168 	 
C 	 -102.729 	 -3.24797 	 -111.172 	 
C 	 -103.853 	 -3.56507 	 -110.417 	 
C 	 -103.661 	 -3.14112 	 -109.098 	 
C 	 -102.384 	 -2.76615 	 -108.727 	 
H 	 -104.422 	 -3.31235 	 -108.358 	 
C 	 -105.165 	 -4.22273 	 -110.878 	 
H 	 -105.813 	 -4.31949 	 -110.061 	 
H 	 -104.907 	 -5.29678 	 -111.14 	 
C 	 -105.882 	 -3.4392 	 -111.992 	 
H 	 -106.154 	 -2.44267 	 -111.61 	 
H 	 -105.13 	 -3.34742 	 -112.824 	 
C 	 -107.187 	 -4.06694 	 -112.519 	 
H 	 -107.708 	 -3.50974 	 -113.231 	 
H 	 -106.987 	 -5.04224 	 -112.948 	 
H 	 -107.943 	 -4.17829 	 -111.754 	 
S 	 -100.055 	 -2.85081 	 -107.279 	 
C 	 -100.082 	 -2.4501 	 -105.625 	 
C 	 -101.354 	 -2.16937 	 -105.154 	 
C 	 -102.345 	 -2.26036 	 -106.117 	 
C 	 -101.831 	 -2.64846 	 -107.372 	 
H 	 -101.544 	 -1.82677 	 -104.147 	 
C 	 -103.762 	 -1.89335 	 -105.698 	 
H 	 -104.277 	 -2.50362 	 -104.973 	 
H 	 -104.422 	 -2.0009 	 -106.541 	 
C 	 -103.865 	 -0.433363 	 -105.218 	 
H 	 -103.234 	 -0.286563 	 -104.357 	 
H 	 -104.906 	 -0.1608 	 -104.863 	 
C 	 -103.538 	 0.489338 	 -106.403 	 
H 	 -103.534 	 0.00341204 	 -107.458 	 
H 	 -102.602 	 1.02418 	 -106.286 	 
H 	 -104.24 	 1.29937 	 -106.394 	 
H 	 -102.65 	 -3.62608 	 -112.231 	 
H 	 -99.2809 	 -2.39529 	 -105.061 	 
