34

S 	 -91.3128 	 -32.1345 	 -73.551 	 
C 	 -90.5575 	 -32.7134 	 -75.0156 	 
C 	 -89.5847 	 -31.8815 	 -75.5324 	 
C 	 -89.5138 	 -30.6904 	 -74.7718 	 
C 	 -90.2478 	 -30.7329 	 -73.616 	 
H 	 -89.0043 	 -29.7529 	 -74.8944 	 
C 	 -89.023 	 -32.0783 	 -76.9688 	 
H 	 -88.9232 	 -33.156 	 -77.1745 	 
H 	 -88.0474 	 -31.642 	 -77.1802 	 
C 	 -89.9642 	 -31.4638 	 -78.0057 	 
H 	 -89.4334 	 -31.7113 	 -78.9439 	 
H 	 -90.9245 	 -31.929 	 -77.9763 	 
C 	 -90.3255 	 -29.9614 	 -77.9786 	 
H 	 -90.9036 	 -29.7058 	 -78.8719 	 
H 	 -90.941 	 -29.7878 	 -77.1543 	 
H 	 -89.2834 	 -29.5623 	 -77.8459 	 
S 	 -89.7611 	 -29.489 	 -71.1345 	 
C 	 -90.5542 	 -27.9553 	 -70.7069 	 
C 	 -91.0967 	 -27.4002 	 -71.851 	 
C 	 -91.2137 	 -28.3213 	 -72.9349 	 
C 	 -90.4701 	 -29.5646 	 -72.7665 	 
H 	 -91.7002 	 -26.5316 	 -71.8609 	 
C 	 -91.8904 	 -27.9852 	 -74.2468 	 
H 	 -92.769 	 -27.3702 	 -73.9387 	 
H 	 -92.1494 	 -28.8107 	 -74.8581 	 
C 	 -91.0894 	 -27.0066 	 -75.1108 	 
H 	 -90.054 	 -27.2884 	 -75.2301 	 
H 	 -91.0116 	 -26.0536 	 -74.6234 	 
C 	 -91.8526 	 -26.6605 	 -76.3248 	 
H 	 -91.9346 	 -27.4282 	 -77.1065 	 
H 	 -91.3967 	 -25.81 	 -76.8651 	 
H 	 -92.8861 	 -26.3085 	 -76.0929 	 
H 	 -90.8413 	 -33.696 	 -75.4487 	 
H 	 -90.6055 	 -27.5283 	 -69.7704 	 
