34

S 	 27.8882 	 2.05486 	 -110.968 	 
C 	 26.9483 	 3.31203 	 -111.766 	 
C 	 25.7001 	 2.80437 	 -112.126 	 
C 	 25.5628 	 1.43242 	 -111.755 	 
C 	 26.5885 	 0.923934 	 -111.04 	 
H 	 24.7872 	 0.71734 	 -111.918 	 
C 	 24.5258 	 3.58496 	 -112.882 	 
H 	 23.6913 	 3.64129 	 -112.154 	 
H 	 24.2238 	 2.9964 	 -113.73 	 
C 	 24.8386 	 5.0221 	 -113.3 	 
H 	 25.2896 	 5.5363 	 -112.455 	 
H 	 25.6907 	 4.95203 	 -114.065 	 
C 	 23.711 	 5.96773 	 -113.764 	 
H 	 23.3072 	 5.7854 	 -114.775 	 
H 	 22.9891 	 5.82953 	 -113.077 	 
H 	 24.2229 	 6.92844 	 -113.741 	 
S 	 26.338 	 -1.72422 	 -111.54 	 
C 	 27.0923 	 -2.86712 	 -110.425 	 
C 	 27.3643 	 -2.28656 	 -109.213 	 
C 	 27.0318 	 -0.92123 	 -109.184 	 
C 	 26.6436 	 -0.441067 	 -110.422 	 
H 	 27.9224 	 -2.84107 	 -108.402 	 
C 	 27.4008 	 -0.0241751 	 -108.044 	 
H 	 26.9138 	 0.940239 	 -108.258 	 
H 	 28.4595 	 0.174231 	 -108.192 	 
C 	 27.0367 	 -0.378615 	 -106.664 	 
H 	 27.5647 	 -1.3141 	 -106.365 	 
H 	 26.0187 	 -0.588586 	 -106.526 	 
C 	 27.3655 	 0.71347 	 -105.606 	 
H 	 27.4043 	 0.331401 	 -104.642 	 
H 	 26.5629 	 1.46634 	 -105.534 	 
H 	 28.3588 	 1.18218 	 -105.784 	 
H 	 27.1981 	 4.38234 	 -111.81 	 
H 	 27.188 	 -3.98534 	 -110.57 	 
