34

S 	 -31.1608 	 -48.7032 	 -75.27 	 
C 	 -29.3912 	 -48.9511 	 -75.3067 	 
C 	 -28.71 	 -47.7565 	 -75.0349 	 
C 	 -29.6702 	 -46.6491 	 -74.9195 	 
C 	 -31.0211 	 -46.9659 	 -75.0781 	 
H 	 -29.3502 	 -45.5853 	 -74.6457 	 
C 	 -27.1928 	 -47.601 	 -74.8454 	 
H 	 -26.9414 	 -48.0569 	 -73.8546 	 
H 	 -26.7888 	 -46.5536 	 -74.7229 	 
C 	 -26.3689 	 -48.3378 	 -75.8767 	 
H 	 -25.3425 	 -48.5621 	 -75.576 	 
H 	 -26.8976 	 -49.2882 	 -75.9994 	 
C 	 -26.4319 	 -47.6384 	 -77.3008 	 
H 	 -27.5186 	 -47.556 	 -77.5203 	 
H 	 -26.0132 	 -46.6141 	 -77.1721 	 
H 	 -25.89 	 -48.1513 	 -78.0343 	 
S 	 -33.5205 	 -46.678 	 -74.0183 	 
C 	 -34.2783 	 -45.1167 	 -73.9393 	 
C 	 -33.4597 	 -44.1626 	 -74.5436 	 
C 	 -32.1963 	 -44.6503 	 -74.9763 	 
C 	 -32.1045 	 -46.024 	 -74.7975 	 
H 	 -33.8447 	 -43.1663 	 -74.5889 	 
C 	 -31.3623 	 -43.7478 	 -75.8194 	 
H 	 -30.4251 	 -44.0864 	 -76.1306 	 
H 	 -31.0915 	 -42.9931 	 -75.0842 	 
C 	 -32.1128 	 -43.1754 	 -77.1071 	 
H 	 -33.1135 	 -42.8493 	 -76.8785 	 
H 	 -32.3628 	 -44.0915 	 -77.7373 	 
C 	 -31.3034 	 -42.2982 	 -77.9728 	 
H 	 -31.7893 	 -41.8312 	 -78.8141 	 
H 	 -30.4675 	 -42.8058 	 -78.4839 	 
H 	 -30.9212 	 -41.4242 	 -77.4168 	 
H 	 -28.8782 	 -49.8834 	 -75.1925 	 
H 	 -35.1866 	 -44.9996 	 -73.4065 	 
