34

S 	 32.6074 	 -32.451 	 -112.946 	 
C 	 31.9749 	 -34.0232 	 -112.627 	 
C 	 32.9663 	 -34.9543 	 -112.61 	 
C 	 34.221 	 -34.3911 	 -113.057 	 
C 	 34.2134 	 -33.06 	 -113.231 	 
H 	 35.175 	 -34.8522 	 -113.302 	 
C 	 32.7898 	 -36.4203 	 -112.282 	 
H 	 31.9668 	 -36.8311 	 -112.837 	 
H 	 32.509 	 -36.516 	 -111.237 	 
C 	 34.087 	 -37.3048 	 -112.27 	 
H 	 34.672 	 -37.2163 	 -113.188 	 
H 	 34.8192 	 -36.9378 	 -111.492 	 
C 	 33.8133 	 -38.7681 	 -111.843 	 
H 	 32.9669 	 -39.092 	 -112.418 	 
H 	 34.6747 	 -39.4884 	 -111.985 	 
H 	 33.5088 	 -38.7815 	 -110.8 	 
S 	 35.1375 	 -31.2174 	 -115.021 	 
C 	 36.728 	 -30.5116 	 -114.785 	 
C 	 37.4345 	 -31.102 	 -113.736 	 
C 	 36.624 	 -32.0979 	 -113.129 	 
C 	 35.3247 	 -32.2335 	 -113.631 	 
H 	 38.443 	 -30.861 	 -113.586 	 
C 	 37.1585 	 -32.8465 	 -111.943 	 
H 	 36.416 	 -33.4227 	 -111.393 	 
H 	 37.3683 	 -32.0169 	 -111.262 	 
C 	 38.4508 	 -33.6913 	 -112.192 	 
H 	 39.099 	 -33.661 	 -111.3 	 
H 	 39.1683 	 -33.3484 	 -112.895 	 
C 	 38.1218 	 -35.216 	 -112.472 	 
H 	 39.0287 	 -35.629 	 -112.851 	 
H 	 37.3337 	 -35.4824 	 -113.203 	 
H 	 37.9068 	 -35.7828 	 -111.591 	 
H 	 30.9924 	 -34.3514 	 -112.314 	 
H 	 37.2718 	 -29.858 	 -115.504 	 
