34

S 	 -61.0952 	 21.8629 	 20.6021 	 
C 	 -62.236 	 21.1309 	 21.8068 	 
C 	 -61.4952 	 20.3478 	 22.714 	 
C 	 -60.0927 	 20.4401 	 22.5036 	 
C 	 -59.6945 	 21.1579 	 21.3508 	 
H 	 -59.2652 	 19.9623 	 23.0065 	 
C 	 -62.0256 	 19.6057 	 23.8502 	 
H 	 -61.1221 	 19.2236 	 24.3715 	 
H 	 -62.6403 	 18.7659 	 23.494 	 
C 	 -62.7131 	 20.4096 	 24.9094 	 
H 	 -62.071 	 20.9348 	 25.5555 	 
H 	 -63.3621 	 21.2651 	 24.5461 	 
C 	 -63.6132 	 19.4433 	 25.8239 	 
H 	 -64.6229 	 19.4856 	 25.5002 	 
H 	 -63.154 	 18.4239 	 25.9974 	 
H 	 -63.7393 	 19.9478 	 26.8037 	 
S 	 -58.0694 	 21.9195 	 19.2351 	 
C 	 -56.3428 	 22.1828 	 19.4046 	 
C 	 -55.9494 	 21.6078 	 20.6385 	 
C 	 -57.0365 	 21.1501 	 21.485 	 
C 	 -58.308 	 21.3815 	 20.906 	 
H 	 -54.8622 	 21.7038 	 20.8335 	 
C 	 -56.6982 	 20.4972 	 22.8225 	 
H 	 -57.3708 	 20.7805 	 23.7176 	 
H 	 -55.7506 	 20.9379 	 23.1803 	 
C 	 -56.6359 	 18.9708 	 22.7494 	 
H 	 -57.5556 	 18.7025 	 22.2715 	 
H 	 -56.6284 	 18.6158 	 23.7833 	 
C 	 -55.4854 	 18.5344 	 21.9538 	 
H 	 -55.3976 	 19.0477 	 21.0062 	 
H 	 -55.388 	 17.3999 	 21.954 	 
H 	 -54.6408 	 18.864 	 22.5889 	 
H 	 -63.2721 	 21.3006 	 21.8841 	 
H 	 -55.7697 	 22.5168 	 18.5399 	 
