34

S 	 -77.3366 	 -3.32104 	 2.95793 	 
C 	 -76.9162 	 -3.87428 	 1.32548 	 
C 	 -77.4202 	 -5.12546 	 0.98751 	 
C 	 -78.012 	 -5.77029 	 2.12679 	 
C 	 -77.9563 	 -4.97336 	 3.25931 	 
H 	 -78.4858 	 -6.77648 	 2.18742 	 
C 	 -77.2526 	 -5.72608 	 -0.360713 	 
H 	 -77.2384 	 -5.00643 	 -1.14825 	 
H 	 -78.032 	 -6.44666 	 -0.549676 	 
C 	 -75.8867 	 -6.40783 	 -0.559557 	 
H 	 -75.7897 	 -6.88369 	 -1.56525 	 
H 	 -75.0151 	 -5.74027 	 -0.630208 	 
C 	 -75.5388 	 -7.56207 	 0.365093 	 
H 	 -75.29 	 -6.97933 	 1.24307 	 
H 	 -76.3512 	 -8.20357 	 0.588644 	 
H 	 -74.6122 	 -8.0424 	 -0.0038715 	 
S 	 -79.3323 	 -4.10835 	 5.4758 	 
C 	 -79.5239 	 -5.03286 	 6.98211 	 
C 	 -78.8923 	 -6.24497 	 6.73842 	 
C 	 -78.2174 	 -6.39439 	 5.46714 	 
C 	 -78.4752 	 -5.33943 	 4.59671 	 
H 	 -79.151 	 -7.02768 	 7.48649 	 
C 	 -77.6261 	 -7.77397 	 5.17594 	 
H 	 -76.9397 	 -8.02401 	 5.97866 	 
H 	 -76.9361 	 -7.59301 	 4.30667 	 
C 	 -78.602 	 -8.99596 	 4.85539 	 
H 	 -79.0054 	 -8.82293 	 3.83425 	 
H 	 -79.4962 	 -9.07144 	 5.50271 	 
C 	 -77.9326 	 -10.372 	 5.00393 	 
H 	 -78.6046 	 -11.1166 	 4.65062 	 
H 	 -77.8787 	 -10.6708 	 6.14867 	 
H 	 -76.9765 	 -10.3892 	 4.41123 	 
H 	 -76.4867 	 -3.29157 	 0.607908 	 
H 	 -80.1837 	 -4.84562 	 7.77723 	 
