34

S 	 -112.535 	 60.4631 	 -20.4842 	 
C 	 -111.749 	 62.0474 	 -20.5287 	 
C 	 -112.076 	 62.7085 	 -21.6871 	 
C 	 -112.991 	 62.0978 	 -22.4956 	 
C 	 -113.193 	 60.7784 	 -22.1115 	 
H 	 -113.51 	 62.4335 	 -23.3681 	 
C 	 -111.679 	 64.1146 	 -21.9611 	 
H 	 -111.04 	 64.2192 	 -22.8215 	 
H 	 -110.93 	 64.324 	 -21.231 	 
C 	 -112.727 	 65.2678 	 -22.0329 	 
H 	 -113.36 	 65.2651 	 -22.8967 	 
H 	 -113.409 	 65.1088 	 -21.1747 	 
C 	 -112.012 	 66.6211 	 -21.8323 	 
H 	 -111.384 	 66.91 	 -22.67 	 
H 	 -112.739 	 67.4537 	 -21.7649 	 
H 	 -111.361 	 66.7055 	 -20.9944 	 
S 	 -115.455 	 59.3709 	 -21.9341 	 
C 	 -116.23 	 58.823 	 -23.372 	 
C 	 -115.4 	 58.9122 	 -24.4978 	 
C 	 -114.21 	 59.5738 	 -24.2067 	 
C 	 -114.112 	 59.9411 	 -22.8648 	 
H 	 -115.782 	 58.4435 	 -25.3837 	 
C 	 -113.173 	 59.7123 	 -25.2725 	 
H 	 -112.553 	 60.4197 	 -24.9542 	 
H 	 -113.481 	 59.8756 	 -26.3201 	 
C 	 -112.204 	 58.4888 	 -25.2426 	 
H 	 -112.859 	 57.6724 	 -25.413 	 
H 	 -111.868 	 58.2724 	 -24.2774 	 
C 	 -111.066 	 58.46 	 -26.2796 	 
H 	 -110.589 	 57.5244 	 -26.2231 	 
H 	 -110.316 	 59.267 	 -26.2064 	 
H 	 -111.438 	 58.5688 	 -27.2698 	 
H 	 -110.977 	 62.2689 	 -19.7669 	 
H 	 -117.186 	 58.3195 	 -23.3267 	 
