34

S 	 -114.352 	 21.6322 	 -110.895 	 
C 	 -113.3 	 22.9391 	 -111.137 	 
C 	 -112.214 	 22.7014 	 -112.029 	 
C 	 -112.251 	 21.3127 	 -112.312 	 
C 	 -113.296 	 20.5662 	 -111.786 	 
H 	 -111.615 	 20.8475 	 -113.029 	 
C 	 -111.137 	 23.6852 	 -112.437 	 
H 	 -111.244 	 24.4454 	 -111.659 	 
H 	 -111.355 	 24.1062 	 -113.456 	 
C 	 -109.74 	 23.1352 	 -112.347 	 
H 	 -109.494 	 22.8261 	 -111.34 	 
H 	 -109.672 	 22.29 	 -113.001 	 
C 	 -108.888 	 24.3164 	 -112.76 	 
H 	 -108.955 	 25.1619 	 -112.093 	 
H 	 -107.806 	 24.237 	 -112.861 	 
H 	 -109.196 	 24.6163 	 -113.734 	 
S 	 -114.07 	 18.9825 	 -113.922 	 
C 	 -114.555 	 17.2937 	 -113.637 	 
C 	 -114.251 	 16.9314 	 -112.356 	 
C 	 -113.876 	 18.0601 	 -111.477 	 
C 	 -113.735 	 19.2549 	 -112.166 	 
H 	 -114.487 	 15.8808 	 -112.103 	 
C 	 -113.541 	 17.8565 	 -109.988 	 
H 	 -113.066 	 18.8067 	 -109.746 	 
H 	 -112.827 	 17.06 	 -109.939 	 
C 	 -114.785 	 17.5674 	 -109.049 	 
H 	 -114.286 	 17.5993 	 -108.031 	 
H 	 -115.369 	 16.6152 	 -109.137 	 
C 	 -115.746 	 18.6683 	 -109.11 	 
H 	 -116.294 	 18.6987 	 -110.098 	 
H 	 -115.231 	 19.5866 	 -108.801 	 
H 	 -116.544 	 18.5173 	 -108.394 	 
H 	 -113.545 	 23.9661 	 -110.746 	 
H 	 -114.964 	 16.6512 	 -114.449 	 
