34

S 	 -134.206 	 66.9726 	 -58.6835 	 
C 	 -133.512 	 65.4961 	 -57.9577 	 
C 	 -134.463 	 64.6694 	 -57.41 	 
C 	 -135.787 	 65.3054 	 -57.4495 	 
C 	 -135.788 	 66.4843 	 -58.1563 	 
H 	 -136.736 	 65.064 	 -57.0178 	 
C 	 -134.273 	 63.309 	 -56.7772 	 
H 	 -133.301 	 62.9958 	 -57.0115 	 
H 	 -134.979 	 62.6477 	 -57.2551 	 
C 	 -134.419 	 63.2535 	 -55.2983 	 
H 	 -135.395 	 63.663 	 -54.9996 	 
H 	 -134.505 	 62.2138 	 -54.8961 	 
C 	 -133.236 	 63.999 	 -54.6475 	 
H 	 -132.38 	 63.4314 	 -54.9292 	 
H 	 -133.123 	 65.0518 	 -54.8803 	 
H 	 -133.344 	 64.0446 	 -53.5903 	 
S 	 -136.698 	 69.0134 	 -58.1452 	 
C 	 -138.375 	 69.3781 	 -58.3455 	 
C 	 -139.134 	 68.2092 	 -58.6451 	 
C 	 -138.321 	 67.0409 	 -58.7618 	 
C 	 -136.978 	 67.2661 	 -58.438 	 
H 	 -140.196 	 68.1382 	 -58.7505 	 
C 	 -138.928 	 65.7107 	 -59.0101 	 
H 	 -140.043 	 65.8624 	 -59.1401 	 
H 	 -138.794 	 65.073 	 -58.1274 	 
C 	 -138.398 	 65.1055 	 -60.3207 	 
H 	 -137.376 	 65.0037 	 -60.3817 	 
H 	 -138.634 	 65.814 	 -61.139 	 
C 	 -139.127 	 63.7446 	 -60.5268 	 
H 	 -140.129 	 63.8791 	 -60.662 	 
H 	 -138.903 	 62.9564 	 -59.7405 	 
H 	 -138.713 	 63.3516 	 -61.4685 	 
H 	 -132.464 	 65.3299 	 -58.0076 	 
H 	 -138.817 	 70.3255 	 -58.3271 	 
