34

S 	 -98.8235 	 8.35351 	 2.51091 	 
C 	 -100.14 	 8.40291 	 1.27023 	 
C 	 -99.645 	 8.19953 	 -0.00482586 	 
C 	 -98.1783 	 8.12325 	 -0.0420454 	 
C 	 -97.6047 	 8.25002 	 1.24454 	 
H 	 -97.5412 	 8.12311 	 -0.88327 	 
C 	 -100.291 	 8.09572 	 -1.36224 	 
H 	 -101.034 	 7.28335 	 -1.18125 	 
H 	 -99.6559 	 7.72842 	 -2.17323 	 
C 	 -101.146 	 9.25773 	 -1.8542 	 
H 	 -101.595 	 9.87281 	 -1.0443 	 
H 	 -100.486 	 9.9604 	 -2.34163 	 
C 	 -102.236 	 8.8922 	 -2.84488 	 
H 	 -102.627 	 9.6367 	 -3.49005 	 
H 	 -102.063 	 7.96748 	 -3.35786 	 
H 	 -103.131 	 8.65458 	 -2.20521 	 
S 	 -95.5393 	 6.5091 	 1.74476 	 
C 	 -93.8964 	 7.23373 	 2.00524 	 
C 	 -93.9915 	 8.60411 	 2.05266 	 
C 	 -95.2248 	 9.09209 	 1.77009 	 
C 	 -96.2179 	 8.16652 	 1.60615 	 
H 	 -93.1016 	 9.16968 	 2.23333 	 
C 	 -95.4957 	 10.5885 	 1.63514 	 
H 	 -96.5252 	 10.7076 	 1.36393 	 
H 	 -94.9277 	 11.0919 	 0.908738 	 
C 	 -95.4314 	 11.3929 	 2.91145 	 
H 	 -94.4163 	 11.2727 	 3.39772 	 
H 	 -96.0909 	 10.9129 	 3.5837 	 
C 	 -95.9475 	 12.8176 	 2.86901 	 
H 	 -95.9913 	 13.1788 	 3.88636 	 
H 	 -96.9023 	 12.8973 	 2.34314 	 
H 	 -95.2968 	 13.5596 	 2.39396 	 
H 	 -101.19 	 8.53988 	 1.54446 	 
H 	 -92.9426 	 6.69246 	 2.20879 	 
