34

S 	 -113.829 	 21.5879 	 -114.016 	 
C 	 -115.41 	 21.5391 	 -114.82 	 
C 	 -116.239 	 22.5141 	 -114.251 	 
C 	 -115.651 	 23.2114 	 -113.104 	 
C 	 -114.338 	 22.8172 	 -112.793 	 
H 	 -116.233 	 23.9302 	 -112.502 	 
C 	 -117.701 	 22.5549 	 -114.705 	 
H 	 -118.321 	 22.5282 	 -113.84 	 
H 	 -117.954 	 21.735 	 -115.356 	 
C 	 -117.938 	 23.8534 	 -115.545 	 
H 	 -117.746 	 24.7227 	 -114.932 	 
H 	 -117.15 	 23.8395 	 -116.29 	 
C 	 -119.277 	 24.047 	 -116.223 	 
H 	 -119.512 	 23.2636 	 -116.979 	 
H 	 -120.07 	 24.1383 	 -115.551 	 
H 	 -119.276 	 25.0778 	 -116.752 	 
S 	 -111.769 	 23.3345 	 -111.971 	 
C 	 -111.627 	 24.1739 	 -110.429 	 
C 	 -112.796 	 24.4328 	 -109.814 	 
C 	 -113.905 	 23.8975 	 -110.47 	 
C 	 -113.531 	 23.3874 	 -111.75 	 
H 	 -112.804 	 25.1244 	 -109.015 	 
C 	 -115.326 	 24.0356 	 -109.885 	 
H 	 -116.039 	 23.4365 	 -110.472 	 
H 	 -115.562 	 25.0173 	 -110.226 	 
C 	 -115.686 	 23.9975 	 -108.368 	 
H 	 -116.815 	 23.9764 	 -108.31 	 
H 	 -115.235 	 24.9091 	 -107.946 	 
C 	 -115.057 	 22.8481 	 -107.523 	 
H 	 -115.676 	 21.9777 	 -107.509 	 
H 	 -114.901 	 23.2341 	 -106.535 	 
H 	 -114.01 	 22.5716 	 -107.905 	 
H 	 -115.655 	 20.8141 	 -115.536 	 
H 	 -110.667 	 24.5282 	 -110.1 	 
