34

S 	 -131.234 	 29.8701 	 -12.977 	 
C 	 -130.977 	 28.5248 	 -11.8289 	 
C 	 -131.2 	 27.3307 	 -12.4355 	 
C 	 -131.502 	 27.4278 	 -13.8309 	 
C 	 -131.535 	 28.7741 	 -14.2882 	 
H 	 -131.698 	 26.6144 	 -14.5007 	 
C 	 -131.152 	 25.9466 	 -11.9128 	 
H 	 -132.132 	 25.488 	 -12.1689 	 
H 	 -131.144 	 26.1383 	 -10.7662 	 
C 	 -129.9 	 25.0904 	 -12.2758 	 
H 	 -130.136 	 24.2417 	 -11.6798 	 
H 	 -129.862 	 24.9266 	 -13.3853 	 
C 	 -128.516 	 25.6119 	 -11.8572 	 
H 	 -127.706 	 24.9716 	 -12.1324 	 
H 	 -128.315 	 26.5789 	 -12.3238 	 
H 	 -128.358 	 25.6654 	 -10.7494 	 
S 	 -131.312 	 30.7914 	 -16.1993 	 
C 	 -132.175 	 30.6024 	 -17.7215 	 
C 	 -132.8 	 29.3806 	 -17.779 	 
C 	 -132.631 	 28.5844 	 -16.5968 	 
C 	 -131.827 	 29.1975 	 -15.6491 	 
H 	 -133.361 	 29.161 	 -18.7456 	 
C 	 -133.299 	 27.2823 	 -16.5212 	 
H 	 -134.232 	 27.3599 	 -17.0664 	 
H 	 -133.621 	 27.1702 	 -15.4736 	 
C 	 -132.575 	 26.071 	 -17.1053 	 
H 	 -131.813 	 25.7409 	 -16.4483 	 
H 	 -132.06 	 26.431 	 -17.9726 	 
C 	 -133.347 	 24.7763 	 -17.6018 	 
H 	 -134.028 	 25.0161 	 -18.3598 	 
H 	 -133.893 	 24.2455 	 -16.8573 	 
H 	 -132.623 	 24.0781 	 -18.0021 	 
H 	 -130.662 	 28.5881 	 -10.8033 	 
H 	 -132.288 	 31.3409 	 -18.4635 	 
