34

S 	 -41.5811 	 -47.6269 	 -72.0092 	 
C 	 -41.6644 	 -45.9944 	 -72.432 	 
C 	 -42.4348 	 -45.2739 	 -71.5061 	 
C 	 -42.8746 	 -46.1233 	 -70.4096 	 
C 	 -42.6678 	 -47.4793 	 -70.6414 	 
H 	 -43.4968 	 -45.8645 	 -69.5305 	 
C 	 -42.6835 	 -43.7122 	 -71.4248 	 
H 	 -41.8868 	 -43.4235 	 -70.6988 	 
H 	 -43.7028 	 -43.555 	 -71.0446 	 
C 	 -42.551 	 -43.0389 	 -72.8375 	 
H 	 -42.3677 	 -41.9466 	 -72.7164 	 
H 	 -41.7158 	 -43.291 	 -73.4904 	 
C 	 -43.7601 	 -43.2352 	 -73.6904 	 
H 	 -43.5699 	 -42.5933 	 -74.555 	 
H 	 -44.0343 	 -44.2328 	 -73.9847 	 
H 	 -44.6078 	 -42.8438 	 -73.1156 	 
S 	 -41.5566 	 -49.379 	 -68.9565 	 
C 	 -42.6256 	 -50.2991 	 -67.8554 	 
C 	 -43.9171 	 -49.9076 	 -67.9543 	 
C 	 -44.1241 	 -48.9415 	 -68.9898 	 
C 	 -42.96 	 -48.5788 	 -69.6848 	 
H 	 -44.6845 	 -50.2486 	 -67.292 	 
C 	 -45.5699 	 -48.4513 	 -69.2272 	 
H 	 -45.5221 	 -47.4296 	 -69.5044 	 
H 	 -46.0795 	 -48.4191 	 -68.2564 	 
C 	 -46.4783 	 -49.3368 	 -70.1179 	 
H 	 -46.5989 	 -50.2856 	 -69.6606 	 
H 	 -45.8945 	 -49.494 	 -71.0043 	 
C 	 -47.7504 	 -48.5673 	 -70.4235 	 
H 	 -48.0831 	 -47.9732 	 -69.5744 	 
H 	 -48.6298 	 -49.2379 	 -70.6306 	 
H 	 -47.6299 	 -47.9252 	 -71.2756 	 
H 	 -41.1515 	 -45.6352 	 -73.3999 	 
H 	 -42.2444 	 -50.9814 	 -67.1082 	 
