34

S 	 -48.7378 	 11.3174 	 -22.8499 	 
C 	 -47.4447 	 10.608 	 -21.8776 	 
C 	 -47.899 	 10.0064 	 -20.8039 	 
C 	 -49.3315 	 10.1945 	 -20.6895 	 
C 	 -49.9623 	 10.9077 	 -21.7219 	 
H 	 -49.9722 	 9.76445 	 -19.9547 	 
C 	 -47.0826 	 9.28652 	 -19.756 	 
H 	 -46.1142 	 8.97872 	 -20.0592 	 
H 	 -47.5011 	 8.27025 	 -19.5835 	 
C 	 -47.0367 	 9.89997 	 -18.3683 	 
H 	 -47.9071 	 10.5117 	 -18.2442 	 
H 	 -47.0821 	 9.32515 	 -17.5126 	 
C 	 -45.8155 	 10.7708 	 -18.291 	 
H 	 -44.8697 	 10.1605 	 -18.2763 	 
H 	 -45.7741 	 11.3683 	 -19.1737 	 
H 	 -45.9191 	 11.4421 	 -17.3947 	 
S 	 -52.59 	 10.4131 	 -20.8944 	 
C 	 -53.8803 	 11.3403 	 -21.4599 	 
C 	 -53.484 	 12.2249 	 -22.4279 	 
C 	 -52.0493 	 12.2126 	 -22.6538 	 
C 	 -51.3886 	 11.3075 	 -21.8528 	 
H 	 -54.174 	 12.8796 	 -22.8697 	 
C 	 -51.5096 	 13.203 	 -23.5825 	 
H 	 -50.4952 	 13.5454 	 -23.1986 	 
H 	 -52.1771 	 14.0391 	 -23.7154 	 
C 	 -51.0891 	 12.7284 	 -25.0182 	 
H 	 -52.0359 	 12.6298 	 -25.5184 	 
H 	 -50.7065 	 11.758 	 -25.0655 	 
C 	 -50.293 	 13.7783 	 -25.8572 	 
H 	 -50.4601 	 14.8617 	 -25.7153 	 
H 	 -50.3586 	 13.5194 	 -26.9043 	 
H 	 -49.2411 	 13.739 	 -25.6314 	 
H 	 -46.4688 	 10.4701 	 -22.2868 	 
H 	 -54.9292 	 11.2167 	 -21.2701 	 
