34

S 	 -123.846 	 66.661 	 -39.1013 	 
C 	 -122.652 	 67.1975 	 -38.0287 	 
C 	 -123.008 	 68.1953 	 -37.1661 	 
C 	 -124.378 	 68.3725 	 -37.2736 	 
C 	 -124.976 	 67.5734 	 -38.2814 	 
H 	 -124.948 	 69.1193 	 -36.6445 	 
C 	 -122.129 	 68.8622 	 -36.1458 	 
H 	 -122.452 	 69.8791 	 -36.1298 	 
H 	 -121.126 	 68.83 	 -36.4031 	 
C 	 -122.207 	 68.5458 	 -34.613 	 
H 	 -121.516 	 69.2317 	 -34.1359 	 
H 	 -123.098 	 68.9941 	 -34.3586 	 
C 	 -121.891 	 67.0586 	 -34.3024 	 
H 	 -121.02 	 66.6298 	 -34.809 	 
H 	 -121.74 	 66.8498 	 -33.2762 	 
H 	 -122.721 	 66.3648 	 -34.5978 	 
S 	 -127.046 	 68.0725 	 -40.1063 	 
C 	 -128.794 	 67.8918 	 -39.5778 	 
C 	 -128.791 	 67.4736 	 -38.251 	 
C 	 -127.506 	 67.2997 	 -37.6601 	 
C 	 -126.435 	 67.5386 	 -38.5552 	 
H 	 -129.885 	 67.3001 	 -37.8359 	 
C 	 -127.44 	 66.8325 	 -36.1845 	 
H 	 -126.479 	 66.4405 	 -36.0213 	 
H 	 -128.034 	 65.944 	 -35.9868 	 
C 	 -127.93 	 67.7771 	 -35.0498 	 
H 	 -128.96 	 68.0504 	 -35.3391 	 
H 	 -127.256 	 68.6349 	 -35.0669 	 
C 	 -127.961 	 66.9661 	 -33.6868 	 
H 	 -127.098 	 66.3432 	 -33.5794 	 
H 	 -128.731 	 66.3211 	 -33.8681 	 
H 	 -128.038 	 67.4986 	 -32.7113 	 
H 	 -121.626 	 66.9781 	 -38.273 	 
H 	 -129.717 	 67.838 	 -40.0982 	 
