34

S 	 28.0232 	 -9.61407 	 -116.602 	 
C 	 29.6606 	 -9.21984 	 -117.039 	 
C 	 30.4927 	 -8.99437 	 -115.896 	 
C 	 29.7918 	 -9.35058 	 -114.685 	 
C 	 28.3969 	 -9.53896 	 -114.879 	 
H 	 30.3054 	 -9.285 	 -113.755 	 
C 	 31.9667 	 -8.70409 	 -115.925 	 
H 	 32.0237 	 -7.81952 	 -115.355 	 
H 	 32.3397 	 -8.40448 	 -116.919 	 
C 	 32.8812 	 -9.76227 	 -115.305 	 
H 	 33.8993 	 -9.48205 	 -115.556 	 
H 	 32.8475 	 -9.77871 	 -114.232 	 
C 	 32.6854 	 -11.1875 	 -115.821 	 
H 	 33.4874 	 -11.7957 	 -115.495 	 
H 	 31.7681 	 -11.6627 	 -115.419 	 
H 	 32.7365 	 -11.0017 	 -116.902 	 
S 	 25.9098 	 -10.7888 	 -114.364 	 
C 	 25.2927 	 -10.8855 	 -112.764 	 
C 	 26.0926 	 -10.1434 	 -111.896 	 
C 	 27.2651 	 -9.65554 	 -112.515 	 
C 	 27.3732 	 -9.87766 	 -113.869 	 
H 	 25.9498 	 -10.0886 	 -110.752 	 
C 	 28.3892 	 -9.11217 	 -111.63 	 
H 	 28.1316 	 -8.5279 	 -110.796 	 
H 	 28.7957 	 -8.32765 	 -112.35 	 
C 	 29.3825 	 -10.1409 	 -111.273 	 
H 	 29.6016 	 -10.7675 	 -112.135 	 
H 	 29.003 	 -10.6706 	 -110.383 	 
C 	 30.6246 	 -9.3699 	 -110.888 	 
H 	 30.5235 	 -8.8319 	 -109.908 	 
H 	 30.8488 	 -8.59629 	 -111.646 	 
H 	 31.491 	 -10.0352 	 -110.783 	 
H 	 29.9912 	 -9.10867 	 -118.084 	 
H 	 24.4155 	 -11.5082 	 -112.499 	 
