34

S 	 37.4414 	 -7.62684 	 -115.388 	 
C 	 38.8508 	 -6.70643 	 -115.913 	 
C 	 38.9221 	 -5.53859 	 -115.193 	 
C 	 37.9753 	 -5.45421 	 -114.134 	 
C 	 37.0884 	 -6.49267 	 -114.038 	 
H 	 37.8187 	 -4.65972 	 -113.406 	 
C 	 39.9707 	 -4.47627 	 -115.397 	 
H 	 40.8435 	 -4.95341 	 -115.748 	 
H 	 40.362 	 -4.00598 	 -114.503 	 
C 	 39.4338 	 -3.49298 	 -116.422 	 
H 	 39.0507 	 -4.00229 	 -117.317 	 
H 	 38.5083 	 -3.11771 	 -115.974 	 
C 	 40.3669 	 -2.37138 	 -116.883 	 
H 	 40.7917 	 -1.92404 	 -115.974 	 
H 	 41.1964 	 -2.76188 	 -117.463 	 
H 	 39.8345 	 -1.55907 	 -117.447 	 
S 	 34.674 	 -7.62278 	 -113.674 	 
C 	 33.9013 	 -7.73128 	 -112.134 	 
C 	 34.5727 	 -6.92678 	 -111.218 	 
C 	 35.7939 	 -6.32964 	 -111.747 	 
C 	 36.0076 	 -6.6638 	 -113.095 	 
H 	 34.2016 	 -6.82811 	 -110.226 	 
C 	 36.8356 	 -5.55823 	 -110.834 	 
H 	 36.4089 	 -5.0255 	 -110.027 	 
H 	 37.2939 	 -4.79287 	 -111.44 	 
C 	 37.9094 	 -6.3791 	 -110.21 	 
H 	 38.6462 	 -5.65976 	 -109.873 	 
H 	 38.2919 	 -6.96529 	 -111.057 	 
C 	 37.6062 	 -7.40041 	 -109.095 	 
H 	 38.5389 	 -7.39287 	 -108.526 	 
H 	 37.6375 	 -8.40841 	 -109.444 	 
H 	 36.7197 	 -7.25867 	 -108.433 	 
H 	 39.443 	 -6.87664 	 -116.743 	 
H 	 32.9907 	 -8.27606 	 -111.903 	 
