34

S 	 24.0734 	 -2.74692 	 -109.462 	 
C 	 23.3325 	 -4.03762 	 -110.273 	 
C 	 22.8077 	 -3.56132 	 -111.474 	 
C 	 22.9663 	 -2.1598 	 -111.67 	 
C 	 23.755 	 -1.56157 	 -110.7 	 
H 	 22.766 	 -1.65434 	 -112.55 	 
C 	 22.0619 	 -4.46231 	 -112.472 	 
H 	 22.0147 	 -5.47873 	 -112.115 	 
H 	 22.6482 	 -4.48488 	 -113.413 	 
C 	 20.6111 	 -3.93023 	 -112.927 	 
H 	 19.9703 	 -3.9667 	 -112.063 	 
H 	 20.7549 	 -2.84076 	 -113.251 	 
C 	 19.8546 	 -4.6917 	 -113.975 	 
H 	 18.8801 	 -4.26806 	 -114.177 	 
H 	 20.3156 	 -4.82361 	 -114.996 	 
H 	 19.5445 	 -5.67302 	 -113.52 	 
S 	 23.3474 	 0.7286 	 -109.203 	 
C 	 24.1205 	 2.17458 	 -109.739 	 
C 	 24.6025 	 2.03854 	 -111.012 	 
C 	 24.5185 	 0.732321 	 -111.576 	 
C 	 23.9616 	 -0.15455 	 -110.628 	 
H 	 25.0504 	 2.87726 	 -111.607 	 
C 	 25.2177 	 0.393244 	 -112.877 	 
H 	 25.1734 	 1.18346 	 -113.674 	 
H 	 24.5324 	 -0.29534 	 -113.347 	 
C 	 26.723 	 0.00813827 	 -112.897 	 
H 	 27.4075 	 0.855484 	 -112.573 	 
H 	 27.0115 	 -0.114212 	 -113.917 	 
C 	 27.0694 	 -1.28642 	 -112.098 	 
H 	 27.1887 	 -1.20598 	 -111.01 	 
H 	 27.9509 	 -1.76184 	 -112.454 	 
H 	 26.2842 	 -2.04563 	 -112.27 	 
H 	 23.3246 	 -5.09948 	 -110.021 	 
H 	 24.1591 	 3.09705 	 -109.209 	 
