34

S 	 -63.9535 	 18.1746 	 -114.537 	 
C 	 -62.6335 	 18.7474 	 -115.564 	 
C 	 -63.1202 	 19.0349 	 -116.79 	 
C 	 -64.5425 	 18.7799 	 -116.934 	 
C 	 -65.1177 	 18.1465 	 -115.83 	 
H 	 -65.2049 	 19.0973 	 -117.764 	 
C 	 -62.3502 	 19.6874 	 -117.938 	 
H 	 -61.336 	 20.0925 	 -117.66 	 
H 	 -62.8598 	 20.5571 	 -118.251 	 
C 	 -62.1736 	 18.7972 	 -119.141 	 
H 	 -61.6548 	 17.9194 	 -118.836 	 
H 	 -63.228 	 18.4086 	 -119.399 	 
C 	 -61.6179 	 19.5551 	 -120.439 	 
H 	 -62.3928 	 20.1818 	 -120.756 	 
H 	 -60.6887 	 20.1622 	 -120.277 	 
H 	 -61.3747 	 18.8305 	 -121.188 	 
S 	 -67.1886 	 17.5574 	 -113.998 	 
C 	 -68.7412 	 16.9905 	 -114.644 	 
C 	 -68.7358 	 16.9667 	 -115.984 	 
C 	 -67.5125 	 17.4115 	 -116.544 	 
C 	 -66.4991 	 17.7171 	 -115.632 	 
H 	 -69.7341 	 16.7692 	 -116.413 	 
C 	 -67.4076 	 17.4791 	 -118.056 	 
H 	 -67.8907 	 16.5603 	 -118.441 	 
H 	 -66.3877 	 17.3817 	 -118.346 	 
C 	 -68.0111 	 18.7386 	 -118.676 	 
H 	 -67.7951 	 19.6543 	 -118.188 	 
H 	 -69.0675 	 18.6466 	 -118.485 	 
C 	 -67.8102 	 18.8459 	 -120.21 	 
H 	 -66.767 	 18.9833 	 -120.385 	 
H 	 -68.5307 	 19.5144 	 -120.569 	 
H 	 -67.9883 	 17.835 	 -120.652 	 
H 	 -61.6171 	 19.0312 	 -115.252 	 
H 	 -69.6337 	 16.6423 	 -114.056 	 
