34

S 	 -41.4126 	 0.27219 	 -7.29383 	 
C 	 -41.2756 	 1.01123 	 -5.68114 	 
C 	 -42.2244 	 2.00609 	 -5.52275 	 
C 	 -43.1673 	 1.96889 	 -6.59858 	 
C 	 -42.839 	 1.16169 	 -7.65891 	 
H 	 -44.0206 	 2.70923 	 -6.69471 	 
C 	 -42.1848 	 3.15 	 -4.5578 	 
H 	 -41.4609 	 2.90102 	 -3.74254 	 
H 	 -43.2075 	 3.01895 	 -4.17793 	 
C 	 -41.9558 	 4.56246 	 -5.08443 	 
H 	 -40.9878 	 4.74187 	 -5.46518 	 
H 	 -42.695 	 4.76324 	 -5.84948 	 
C 	 -42.2676 	 5.59424 	 -4.01644 	 
H 	 -41.666 	 5.34117 	 -3.11253 	 
H 	 -42.083 	 6.66455 	 -4.26872 	 
H 	 -43.3176 	 5.47515 	 -3.77793 	 
S 	 -42.7136 	 1.71903 	 -10.2812 	 
C 	 -43.9295 	 1.29506 	 -11.4314 	 
C 	 -45.0613 	 0.942235 	 -10.7368 	 
C 	 -44.9397 	 0.80038 	 -9.31039 	 
C 	 -43.5747 	 1.1077 	 -8.92959 	 
H 	 -45.9541 	 0.642317 	 -11.346 	 
C 	 -46.0234 	 0.361553 	 -8.35655 	 
H 	 -45.4767 	 0.0113407 	 -7.45664 	 
H 	 -46.6374 	 -0.417517 	 -8.79163 	 
C 	 -46.9662 	 1.4661 	 -7.95803 	 
H 	 -47.4737 	 1.79123 	 -8.8143 	 
H 	 -46.2977 	 2.27048 	 -7.58561 	 
C 	 -47.9306 	 1.02997 	 -6.8508 	 
H 	 -47.4834 	 0.551784 	 -6.05974 	 
H 	 -48.532 	 0.201853 	 -7.25043 	 
H 	 -48.7735 	 1.71521 	 -6.49864 	 
H 	 -40.3216 	 0.91315 	 -5.09996 	 
H 	 -43.8907 	 1.44245 	 -12.5117 	 
