34

S 	 -110.943 	 43.4871 	 -11.5897 	 
C 	 -109.665 	 44.7506 	 -11.6717 	 
C 	 -108.427 	 44.1814 	 -11.7312 	 
C 	 -108.479 	 42.7458 	 -11.4509 	 
C 	 -109.74 	 42.2464 	 -11.3091 	 
H 	 -107.665 	 42.0746 	 -11.3994 	 
C 	 -107.141 	 44.9778 	 -11.8122 	 
H 	 -107.146 	 45.6856 	 -12.6342 	 
H 	 -106.331 	 44.3061 	 -12.1108 	 
C 	 -106.661 	 45.538 	 -10.4148 	 
H 	 -105.721 	 46.1582 	 -10.4819 	 
H 	 -107.447 	 46.2143 	 -10.095 	 
C 	 -106.339 	 44.3791 	 -9.50508 	 
H 	 -107.29 	 43.902 	 -9.2652 	 
H 	 -105.699 	 43.634 	 -10.0268 	 
H 	 -105.966 	 44.699 	 -8.5594 	 
S 	 -110.864 	 39.9585 	 -12.261 	 
C 	 -111.067 	 38.6016 	 -11.2034 	 
C 	 -110.1 	 38.6368 	 -10.1813 	 
C 	 -109.504 	 39.939 	 -10.1018 	 
C 	 -109.957 	 40.8308 	 -11.0344 	 
H 	 -109.794 	 37.7994 	 -9.65339 	 
C 	 -108.527 	 40.2741 	 -9.02185 	 
H 	 -107.897 	 41.129 	 -9.42787 	 
H 	 -108.001 	 39.3503 	 -8.78871 	 
C 	 -109.311 	 40.6176 	 -7.73523 	 
H 	 -108.663 	 40.8977 	 -6.87553 	 
H 	 -109.934 	 39.7071 	 -7.4442 	 
C 	 -110.332 	 41.6814 	 -7.9671 	 
H 	 -111.231 	 41.3097 	 -8.43646 	 
H 	 -109.891 	 42.4253 	 -8.62385 	 
H 	 -110.591 	 42.2605 	 -7.08788 	 
H 	 -109.635 	 45.8325 	 -11.9938 	 
H 	 -111.668 	 37.7879 	 -11.5311 	 
