34

S 	 -118.527 	 63.3719 	 -64.1151 	 
C 	 -119.994 	 62.4907 	 -64.6557 	 
C 	 -121.132 	 63.2384 	 -64.1943 	 
C 	 -120.78 	 64.4521 	 -63.4617 	 
C 	 -119.405 	 64.5973 	 -63.3285 	 
H 	 -121.403 	 65.1814 	 -62.9459 	 
C 	 -122.546 	 62.8111 	 -64.3226 	 
H 	 -123.162 	 63.1989 	 -63.537 	 
H 	 -122.614 	 61.8071 	 -63.9403 	 
C 	 -123.157 	 62.9038 	 -65.7833 	 
H 	 -123.082 	 63.9895 	 -66.1025 	 
H 	 -122.557 	 62.3942 	 -66.5192 	 
C 	 -124.662 	 62.5434 	 -65.9737 	 
H 	 -124.729 	 61.5497 	 -65.706 	 
H 	 -125.274 	 63.1257 	 -65.2529 	 
H 	 -124.998 	 62.7788 	 -67.0015 	 
S 	 -118.74 	 67.2083 	 -63.2022 	 
C 	 -117.625 	 67.6296 	 -61.8904 	 
C 	 -117.374 	 66.6437 	 -60.9597 	 
C 	 -117.9 	 65.3611 	 -61.3961 	 
C 	 -118.636 	 65.5491 	 -62.5951 	 
H 	 -116.835 	 66.8245 	 -60.0212 	 
C 	 -117.859 	 64.125 	 -60.4948 	 
H 	 -118.755 	 63.5003 	 -60.6262 	 
H 	 -117.948 	 64.4513 	 -59.4759 	 
C 	 -116.721 	 63.0729 	 -60.7495 	 
H 	 -116.924 	 62.5042 	 -61.7033 	 
H 	 -116.859 	 62.3308 	 -59.9327 	 
C 	 -115.34 	 63.6835 	 -60.6859 	 
H 	 -115.283 	 64.2755 	 -61.5785 	 
H 	 -114.643 	 62.835 	 -60.6282 	 
H 	 -115.285 	 64.3221 	 -59.8592 	 
H 	 -120.074 	 61.5956 	 -65.273 	 
H 	 -117.34 	 68.6448 	 -61.7304 	 
