34

S 	 -113.372 	 34.8182 	 -119.53 	 
C 	 -112.811 	 33.901 	 -120.83 	 
C 	 -113.198 	 32.5247 	 -120.791 	 
C 	 -114.093 	 32.2682 	 -119.682 	 
C 	 -114.334 	 33.4628 	 -118.966 	 
H 	 -114.668 	 31.2993 	 -119.47 	 
C 	 -112.886 	 31.4324 	 -121.82 	 
H 	 -112.68 	 31.9907 	 -122.752 	 
H 	 -113.751 	 30.7328 	 -121.991 	 
C 	 -111.702 	 30.5137 	 -121.55 	 
H 	 -110.746 	 31.0434 	 -121.74 	 
H 	 -111.812 	 30.2825 	 -120.492 	 
C 	 -111.705 	 29.1526 	 -122.206 	 
H 	 -111.045 	 28.5532 	 -121.646 	 
H 	 -112.707 	 28.6869 	 -122.364 	 
H 	 -111.323 	 29.2019 	 -123.217 	 
S 	 -114.326 	 34.3553 	 -116.422 	 
C 	 -115.599 	 33.9128 	 -115.344 	 
C 	 -116.629 	 33.3174 	 -116.045 	 
C 	 -116.406 	 33.1285 	 -117.423 	 
C 	 -115.138 	 33.5244 	 -117.772 	 
H 	 -117.6 	 33.1277 	 -115.551 	 
C 	 -117.517 	 32.4984 	 -118.242 	 
H 	 -118.021 	 31.7677 	 -117.602 	 
H 	 -117.123 	 32.0095 	 -119.149 	 
C 	 -118.551 	 33.5156 	 -118.548 	 
H 	 -117.994 	 34.3501 	 -118.899 	 
H 	 -118.942 	 33.8158 	 -117.642 	 
C 	 -119.675 	 33.1795 	 -119.626 	 
H 	 -119.254 	 32.7737 	 -120.578 	 
H 	 -120.135 	 34.1772 	 -119.843 	 
H 	 -120.418 	 32.4704 	 -119.356 	 
H 	 -112.1 	 34.1558 	 -121.594 	 
H 	 -115.597 	 34.1129 	 -114.276 	 
