34

S 	 -102.307 	 60.5281 	 -104.18 	 
C 	 -101.802 	 59.1804 	 -103.108 	 
C 	 -102.891 	 58.4276 	 -102.767 	 
C 	 -104.124 	 58.9116 	 -103.342 	 
C 	 -103.999 	 60.0719 	 -104.109 	 
H 	 -105.071 	 58.3683 	 -103.323 	 
C 	 -102.839 	 57.1716 	 -101.998 	 
H 	 -103.776 	 56.9725 	 -101.464 	 
H 	 -102.22 	 57.2805 	 -101.144 	 
C 	 -102.461 	 55.9164 	 -102.73 	 
H 	 -101.588 	 56.1139 	 -103.332 	 
H 	 -102.163 	 55.1724 	 -101.958 	 
C 	 -103.479 	 55.4117 	 -103.73 	 
H 	 -103.687 	 56.2481 	 -104.498 	 
H 	 -102.934 	 54.5659 	 -104.313 	 
H 	 -104.419 	 54.9907 	 -103.318 	 
S 	 -104.666 	 62.3207 	 -105.57 	 
C 	 -106.326 	 62.8687 	 -105.691 	 
C 	 -107.148 	 62.0436 	 -104.94 	 
C 	 -106.424 	 60.9944 	 -104.264 	 
C 	 -105.103 	 60.9468 	 -104.534 	 
H 	 -108.196 	 62.3697 	 -104.851 	 
C 	 -107.227 	 60.1242 	 -103.336 	 
H 	 -107.836 	 60.7503 	 -102.631 	 
H 	 -106.592 	 59.7604 	 -102.549 	 
C 	 -108.145 	 59.11 	 -103.948 	 
H 	 -107.607 	 58.462 	 -104.646 	 
H 	 -108.934 	 59.6615 	 -104.44 	 
C 	 -108.784 	 58.1563 	 -102.964 	 
H 	 -109.374 	 58.6131 	 -102.251 	 
H 	 -108.078 	 57.6248 	 -102.451 	 
H 	 -109.451 	 57.4128 	 -103.53 	 
H 	 -100.82 	 58.9239 	 -102.702 	 
H 	 -106.667 	 63.7375 	 -106.149 	 
