34

S 	 -132.381 	 1.18828 	 3.44942 	 
C 	 -131.68 	 -0.277495 	 4.19042 	 
C 	 -130.688 	 0.0207034 	 5.10838 	 
C 	 -130.434 	 1.42888 	 5.21076 	 
C 	 -131.328 	 2.12261 	 4.43975 	 
H 	 -129.728 	 1.96584 	 5.83317 	 
C 	 -129.962 	 -0.895401 	 6.05756 	 
H 	 -128.905 	 -0.778033 	 5.86396 	 
H 	 -130.184 	 -1.90087 	 5.72263 	 
C 	 -130.337 	 -0.806919 	 7.6008 	 
H 	 -129.685 	 -1.48405 	 8.14223 	 
H 	 -130.059 	 0.141298 	 8.00735 	 
C 	 -131.817 	 -1.18093 	 7.91108 	 
H 	 -132.535 	 -0.485248 	 7.44624 	 
H 	 -131.978 	 -2.25215 	 7.71106 	 
H 	 -131.874 	 -1.02406 	 8.96377 	 
S 	 -132.134 	 4.30733 	 2.8194 	 
C 	 -132.201 	 5.89879 	 3.65516 	 
C 	 -132.02 	 5.83989 	 5.01084 	 
C 	 -131.496 	 4.56021 	 5.39959 	 
C 	 -131.58 	 3.59303 	 4.40229 	 
H 	 -132.054 	 6.77773 	 5.64415 	 
C 	 -131.302 	 4.30537 	 6.88267 	 
H 	 -131.116 	 5.23534 	 7.40325 	 
H 	 -130.437 	 3.79089 	 6.95525 	 
C 	 -132.567 	 3.61176 	 7.53575 	 
H 	 -132.978 	 2.87843 	 6.87331 	 
H 	 -133.29 	 4.32306 	 7.65033 	 
C 	 -132.279 	 3.01216 	 8.87817 	 
H 	 -131.795 	 3.68767 	 9.56224 	 
H 	 -131.549 	 2.2328 	 8.8155 	 
H 	 -133.26 	 2.75936 	 9.32865 	 
H 	 -132.03 	 -1.29812 	 4.2175 	 
H 	 -132.673 	 6.85037 	 3.31718 	 
