34

S 	 32.5637 	 -36.8739 	 -130.469 	 
C 	 32.9235 	 -35.1978 	 -130.208 	 
C 	 32.2305 	 -34.4426 	 -131.113 	 
C 	 31.3261 	 -35.2098 	 -131.903 	 
C 	 31.3077 	 -36.5534 	 -131.683 	 
H 	 30.6138 	 -34.793 	 -132.596 	 
C 	 32.3041 	 -32.9262 	 -131.356 	 
H 	 32.4743 	 -32.8814 	 -132.442 	 
H 	 33.1792 	 -32.4607 	 -130.93 	 
C 	 31.0007 	 -32.137 	 -131.082 	 
H 	 30.8875 	 -31.2543 	 -131.718 	 
H 	 30.1214 	 -32.7377 	 -131.223 	 
C 	 30.9766 	 -31.639 	 -129.643 	 
H 	 30.1554 	 -30.9542 	 -129.416 	 
H 	 30.9435 	 -32.4409 	 -128.999 	 
H 	 31.9074 	 -31.06 	 -129.365 	 
S 	 31.367 	 -38.7483 	 -133.339 	 
C 	 29.8965 	 -39.2448 	 -134.059 	 
C 	 28.794 	 -38.5975 	 -133.6 	 
C 	 29.1238 	 -37.5368 	 -132.695 	 
C 	 30.4755 	 -37.5636 	 -132.392 	 
H 	 27.8078 	 -38.726 	 -134.068 	 
C 	 28.0447 	 -36.7682 	 -131.966 	 
H 	 27.1147 	 -36.8619 	 -132.468 	 
H 	 28.3371 	 -35.7257 	 -132.013 	 
C 	 27.7884 	 -37.2118 	 -130.497 	 
H 	 27.0867 	 -36.5341 	 -129.999 	 
H 	 28.7358 	 -37.0787 	 -129.938 	 
C 	 27.3629 	 -38.7228 	 -130.308 	 
H 	 27.9245 	 -39.5113 	 -130.73 	 
H 	 26.3972 	 -38.7917 	 -130.838 	 
H 	 27.2327 	 -38.9236 	 -129.176 	 
H 	 33.6402 	 -34.7667 	 -129.532 	 
H 	 29.7515 	 -40.0126 	 -134.814 	 
