34

S 	 -131.058 	 65.7318 	 -59.6918 	 
C 	 -132.133 	 67.1701 	 -59.5923 	 
C 	 -133.413 	 66.7881 	 -59.2943 	 
C 	 -133.542 	 65.3475 	 -59.275 	 
C 	 -132.439 	 64.6096 	 -59.5745 	 
H 	 -134.474 	 64.7941 	 -58.9944 	 
C 	 -134.472 	 67.7906 	 -58.8379 	 
H 	 -133.902 	 68.7235 	 -58.5435 	 
H 	 -134.957 	 67.4014 	 -57.9276 	 
C 	 -135.628 	 68.0328 	 -59.8493 	 
H 	 -136.214 	 67.1024 	 -59.862 	 
H 	 -136.387 	 68.6856 	 -59.4362 	 
C 	 -135.131 	 68.4923 	 -61.2546 	 
H 	 -135.035 	 69.6017 	 -61.2938 	 
H 	 -134.272 	 67.969 	 -61.6795 	 
H 	 -135.931 	 68.3007 	 -61.9964 	 
S 	 -132.347 	 62.2157 	 -60.8628 	 
C 	 -132.462 	 60.7398 	 -59.933 	 
C 	 -132.266 	 60.9056 	 -58.5878 	 
C 	 -132.296 	 62.3048 	 -58.233 	 
C 	 -132.335 	 63.1478 	 -59.3948 	 
H 	 -132.189 	 60.0005 	 -57.9839 	 
C 	 -132.075 	 62.7596 	 -56.7616 	 
H 	 -132.809 	 63.5615 	 -56.635 	 
H 	 -131.108 	 63.3137 	 -56.718 	 
C 	 -132.414 	 61.8466 	 -55.4771 	 
H 	 -131.79 	 61.0138 	 -55.6199 	 
H 	 -133.405 	 61.5307 	 -55.5713 	 
C 	 -132.268 	 62.3667 	 -54.0559 	 
H 	 -132.303 	 61.6602 	 -53.2709 	 
H 	 -132.989 	 63.2046 	 -53.844 	 
H 	 -131.234 	 62.8681 	 -53.8757 	 
H 	 -131.859 	 68.2153 	 -59.4914 	 
H 	 -132.58 	 59.7728 	 -60.3379 	 
