34

S 	 -54.6424 	 14.1127 	 23.2278 	 
C 	 -56.1897 	 13.4915 	 22.6073 	 
C 	 -56.7403 	 14.2641 	 21.6636 	 
C 	 -55.9586 	 15.3744 	 21.4655 	 
C 	 -54.8117 	 15.463 	 22.2442 	 
H 	 -56.2405 	 16.1704 	 20.7661 	 
C 	 -57.9752 	 13.8997 	 20.8559 	 
H 	 -58.7078 	 14.6254 	 21.1191 	 
H 	 -58.3805 	 12.9259 	 21.2311 	 
C 	 -57.7704 	 13.7996 	 19.3481 	 
H 	 -57.1993 	 14.6863 	 19.0234 	 
H 	 -57.0995 	 12.9993 	 19.0629 	 
C 	 -59.1569 	 13.6465 	 18.5514 	 
H 	 -59.4633 	 12.6231 	 18.7722 	 
H 	 -59.9604 	 14.1525 	 19.0146 	 
H 	 -59.0821 	 13.7577 	 17.4759 	 
S 	 -53.6682 	 17.6994 	 23.5634 	 
C 	 -52.4309 	 18.6355 	 22.7592 	 
C 	 -52.0004 	 18.0616 	 21.5609 	 
C 	 -52.866 	 16.8839 	 21.2508 	 
C 	 -53.7604 	 16.5185 	 22.2523 	 
H 	 -51.3011 	 18.5721 	 20.9093 	 
C 	 -52.7332 	 16.1951 	 19.89 	 
H 	 -52.758 	 15.1576 	 20.113 	 
H 	 -51.83 	 16.3923 	 19.4174 	 
C 	 -53.8273 	 16.4808 	 18.833 	 
H 	 -54.7394 	 15.8632 	 18.962 	 
H 	 -53.5316 	 16.1746 	 17.8319 	 
C 	 -54.422 	 17.9635 	 18.7603 	 
H 	 -54.9408 	 18.2705 	 19.7586 	 
H 	 -55.0501 	 18.0676 	 17.9209 	 
H 	 -53.5902 	 18.5975 	 18.5499 	 
H 	 -56.6865 	 12.6461 	 23.0031 	 
H 	 -51.9791 	 19.4563 	 23.1745 	 
