34

S 	 -98.1577 	 8.46129 	 5.19502 	 
C 	 -97.5463 	 6.86418 	 4.75576 	 
C 	 -97.7494 	 5.9983 	 5.84695 	 
C 	 -98.3146 	 6.66093 	 7.00737 	 
C 	 -98.5122 	 7.99907 	 6.86599 	 
H 	 -98.6545 	 6.27026 	 7.91681 	 
C 	 -97.292 	 4.57757 	 5.82347 	 
H 	 -96.2418 	 4.66282 	 6.17621 	 
H 	 -97.2548 	 4.23533 	 4.77186 	 
C 	 -98.0723 	 3.47143 	 6.56662 	 
H 	 -98.164 	 3.78139 	 7.62843 	 
H 	 -99.0664 	 3.41065 	 6.10783 	 
C 	 -97.4595 	 2.0506 	 6.60725 	 
H 	 -98.2453 	 1.31569 	 6.72958 	 
H 	 -96.9745 	 1.89677 	 5.65714 	 
H 	 -96.6444 	 2.01746 	 7.2686 	 
S 	 -100.612 	 9.52775 	 7.93455 	 
C 	 -100.332 	 10.2002 	 9.55031 	 
C 	 -99.0488 	 9.9388 	 9.98155 	 
C 	 -98.2978 	 9.1405 	 9.08068 	 
C 	 -98.9226 	 8.94395 	 7.89293 	 
H 	 -98.7119 	 10.4861 	 10.8553 	 
C 	 -96.8584 	 8.96262 	 9.374 	 
H 	 -96.6183 	 8.05725 	 8.91388 	 
H 	 -96.718 	 8.84408 	 10.4821 	 
C 	 -95.8129 	 9.80013 	 8.70598 	 
H 	 -96.0221 	 10.8656 	 8.86443 	 
H 	 -95.8066 	 9.51888 	 7.65021 	 
C 	 -94.3625 	 9.48364 	 9.28191 	 
H 	 -93.6411 	 10.1778 	 8.69577 	 
H 	 -94.0131 	 8.49731 	 9.15012 	 
H 	 -94.3762 	 9.71788 	 10.3606 	 
H 	 -97.1822 	 6.50332 	 3.77863 	 
H 	 -101.004 	 10.8497 	 10.099 	 
