34

S 	 -47.3803 	 16.8169 	 20.5289 	 
C 	 -49.0821 	 16.823 	 20.3169 	 
C 	 -49.5618 	 15.6119 	 19.9732 	 
C 	 -48.5477 	 14.6516 	 19.6385 	 
C 	 -47.2541 	 15.1934 	 19.6951 	 
H 	 -48.7239 	 13.6837 	 19.2773 	 
C 	 -51.0028 	 15.1628 	 19.898 	 
H 	 -51.1283 	 14.1372 	 20.1445 	 
H 	 -51.1537 	 15.2772 	 18.8413 	 
C 	 -51.9825 	 16.0438 	 20.6028 	 
H 	 -51.9581 	 17.1141 	 20.3499 	 
H 	 -53.0317 	 15.7118 	 20.4278 	 
C 	 -51.7227 	 15.9417 	 22.0908 	 
H 	 -50.6728 	 16.2162 	 22.3172 	 
H 	 -52.3578 	 16.6672 	 22.6419 	 
H 	 -51.8603 	 14.9117 	 22.3863 	 
S 	 -45.2942 	 13.363 	 20.4744 	 
C 	 -43.9508 	 13.1385 	 19.3879 	 
C 	 -43.9917 	 13.9959 	 18.3057 	 
C 	 -45.1728 	 14.7803 	 18.3156 	 
C 	 -45.9747 	 14.5608 	 19.4069 	 
H 	 -43.1786 	 13.9783 	 17.6603 	 
C 	 -45.5556 	 15.6777 	 17.0907 	 
H 	 -46.5488 	 16.0779 	 17.2307 	 
H 	 -45.6024 	 15.0714 	 16.2129 	 
C 	 -44.5414 	 16.8396 	 16.7884 	 
H 	 -44.8945 	 17.2704 	 15.8997 	 
H 	 -43.6052 	 16.3131 	 16.6068 	 
C 	 -44.3303 	 17.7123 	 18.0057 	 
H 	 -43.4755 	 18.4439 	 17.9649 	 
H 	 -43.9165 	 17.1219 	 18.8859 	 
H 	 -45.2267 	 18.2607 	 18.4121 	 
H 	 -49.6369 	 17.6661 	 20.5731 	 
H 	 -43.1215 	 12.5454 	 19.7633 	 
