34

S 	 -66.0065 	 8.09411 	 -68.5282 	 
C 	 -66.2653 	 8.18368 	 -70.2506 	 
C 	 -66.3472 	 6.94841 	 -70.7759 	 
C 	 -66.3064 	 5.97219 	 -69.776 	 
C 	 -66.172 	 6.38549 	 -68.4478 	 
H 	 -66.3384 	 4.92756 	 -69.9471 	 
C 	 -66.2992 	 6.64019 	 -72.2653 	 
H 	 -65.5854 	 5.85554 	 -72.402 	 
H 	 -65.8431 	 7.37125 	 -72.9392 	 
C 	 -67.6279 	 6.29843 	 -72.92 	 
H 	 -68.3992 	 7.00122 	 -72.516 	 
H 	 -67.6523 	 6.72563 	 -74.0122 	 
C 	 -67.9323 	 4.77533 	 -72.9217 	 
H 	 -67.688 	 4.21833 	 -71.9909 	 
H 	 -68.9312 	 4.65315 	 -73.2569 	 
H 	 -67.2273 	 4.22149 	 -73.6297 	 
S 	 -65.0306 	 6.31977 	 -66.012 	 
C 	 -65.0682 	 4.88194 	 -64.9716 	 
C 	 -65.8505 	 3.879 	 -65.5596 	 
C 	 -66.4131 	 4.30768 	 -66.8728 	 
C 	 -66.0577 	 5.5956 	 -67.2364 	 
H 	 -66.0034 	 2.98494 	 -64.9249 	 
C 	 -67.452 	 3.43408 	 -67.564 	 
H 	 -67.5931 	 3.62181 	 -68.5985 	 
H 	 -68.4338 	 3.48916 	 -67.0551 	 
C 	 -67.1145 	 1.9163 	 -67.585 	 
H 	 -67.2654 	 1.49644 	 -66.6112 	 
H 	 -66.1041 	 1.67746 	 -67.86 	 
C 	 -68.0766 	 1.09776 	 -68.4092 	 
H 	 -67.8014 	 1.27283 	 -69.4803 	 
H 	 -69.0741 	 1.45192 	 -68.2135 	 
H 	 -68.0339 	 0.0587676 	 -68.1829 	 
H 	 -66.3119 	 9.11901 	 -70.7981 	 
H 	 -64.6302 	 4.6884 	 -64.0672 	 
