34

S 	 -101.342 	 24.4171 	 -109.251 	 
C 	 -102.485 	 23.1119 	 -109.638 	 
C 	 -103.763 	 23.5705 	 -109.878 	 
C 	 -103.858 	 25.0032 	 -109.722 	 
C 	 -102.653 	 25.6106 	 -109.356 	 
H 	 -104.764 	 25.5856 	 -109.864 	 
C 	 -104.91 	 22.6928 	 -110.047 	 
H 	 -105.633 	 22.9206 	 -109.239 	 
H 	 -104.592 	 21.6439 	 -110.057 	 
C 	 -105.774 	 22.9076 	 -111.272 	 
H 	 -106.784 	 22.5329 	 -111.205 	 
H 	 -106.006 	 23.9433 	 -111.39 	 
C 	 -104.959 	 22.4119 	 -112.41 	 
H 	 -103.98 	 22.9746 	 -112.385 	 
H 	 -104.868 	 21.3524 	 -112.568 	 
H 	 -105.495 	 22.6761 	 -113.278 	 
S 	 -101.393 	 27.5169 	 -107.903 	 
C 	 -101.61 	 29.1872 	 -108.366 	 
C 	 -102.551 	 29.4045 	 -109.333 	 
C 	 -103.051 	 28.1774 	 -109.844 	 
C 	 -102.491 	 27.0668 	 -109.173 	 
H 	 -102.709 	 30.4444 	 -109.757 	 
C 	 -103.918 	 28.076 	 -111.045 	 
H 	 -104.05 	 27.0456 	 -111.362 	 
H 	 -103.321 	 28.5863 	 -111.791 	 
C 	 -105.229 	 28.6575 	 -110.872 	 
H 	 -105.253 	 29.6925 	 -110.839 	 
H 	 -105.746 	 28.2488 	 -109.943 	 
C 	 -106.134 	 28.2774 	 -112.058 	 
H 	 -106.147 	 27.2434 	 -112.23 	 
H 	 -105.804 	 28.7233 	 -112.999 	 
H 	 -107.198 	 28.5894 	 -111.81 	 
H 	 -102.251 	 22.0629 	 -109.726 	 
H 	 -100.86 	 29.9716 	 -108.02 	 
