34

S 	 -108.316 	 55.5136 	 -90.6888 	 
C 	 -109.675 	 56.1561 	 -91.4895 	 
C 	 -110.849 	 56.05 	 -90.7856 	 
C 	 -110.639 	 55.2306 	 -89.5995 	 
C 	 -109.315 	 54.8372 	 -89.4335 	 
H 	 -111.42 	 54.8839 	 -88.9269 	 
C 	 -112.219 	 56.538 	 -91.2487 	 
H 	 -112.531 	 57.3815 	 -90.5581 	 
H 	 -113.017 	 55.8181 	 -90.9119 	 
C 	 -112.445 	 56.8388 	 -92.8112 	 
H 	 -111.837 	 57.6567 	 -93.0804 	 
H 	 -112.065 	 55.9607 	 -93.3761 	 
C 	 -113.937 	 57.1547 	 -93.1671 	 
H 	 -114.593 	 56.4154 	 -92.7168 	 
H 	 -114.26 	 58.1795 	 -92.7951 	 
H 	 -114.169 	 57.0231 	 -94.2377 	 
S 	 -107.291 	 54.4439 	 -87.6507 	 
C 	 -107.273 	 53.0075 	 -86.662 	 
C 	 -108.414 	 52.2287 	 -86.7867 	 
C 	 -109.302 	 52.7257 	 -87.7772 	 
C 	 -108.819 	 53.9116 	 -88.3941 	 
H 	 -108.584 	 51.346 	 -86.167 	 
C 	 -110.487 	 51.8976 	 -88.1562 	 
H 	 -111.349 	 52.5912 	 -88.3764 	 
H 	 -110.953 	 51.392 	 -87.2924 	 
C 	 -110.302 	 50.8409 	 -89.2002 	 
H 	 -111.185 	 50.3392 	 -89.5623 	 
H 	 -109.559 	 50.089 	 -88.8601 	 
C 	 -109.718 	 51.4169 	 -90.4942 	 
H 	 -109.539 	 50.6506 	 -91.2336 	 
H 	 -108.811 	 51.9936 	 -90.2822 	 
H 	 -110.358 	 52.0897 	 -91.0497 	 
H 	 -109.633 	 56.7719 	 -92.3772 	 
H 	 -106.585 	 52.819 	 -85.8452 	 
