34

S 	 -56.4082 	 0.761135 	 -21.9024 	 
C 	 -55.4384 	 -0.469949 	 -22.6449 	 
C 	 -56.0092 	 -1.71582 	 -22.4791 	 
C 	 -57.364 	 -1.61313 	 -21.9857 	 
C 	 -57.7037 	 -0.381492 	 -21.4237 	 
H 	 -57.9641 	 -2.5218 	 -21.832 	 
C 	 -55.4929 	 -3.07312 	 -23.1312 	 
H 	 -55.6915 	 -2.92908 	 -24.1869 	 
H 	 -56.1394 	 -3.89603 	 -22.8654 	 
C 	 -54.0036 	 -3.45407 	 -22.9112 	 
H 	 -53.7102 	 -4.42171 	 -23.3792 	 
H 	 -53.2731 	 -2.87604 	 -23.4858 	 
C 	 -53.5751 	 -3.58942 	 -21.4514 	 
H 	 -54.0714 	 -4.35039 	 -20.7841 	 
H 	 -52.457 	 -3.75373 	 -21.4707 	 
H 	 -53.8103 	 -2.75834 	 -20.7978 	 
S 	 -59.7705 	 1.39384 	 -21.0414 	 
C 	 -60.974 	 1.05664 	 -19.8582 	 
C 	 -60.5155 	 0.0895386 	 -18.9609 	 
C 	 -59.3061 	 -0.589182 	 -19.362 	 
C 	 -58.8456 	 -0.0331341 	 -20.5714 	 
H 	 -61.165 	 -0.250478 	 -18.1557 	 
C 	 -58.8381 	 -1.82928 	 -18.5866 	 
H 	 -58.0448 	 -2.11194 	 -19.16 	 
H 	 -59.669 	 -2.52426 	 -18.6594 	 
C 	 -58.4927 	 -1.51319 	 -17.1472 	 
H 	 -59.3571 	 -1.07936 	 -16.632 	 
H 	 -57.7694 	 -0.755994 	 -17.0054 	 
C 	 -58.067 	 -2.73049 	 -16.3206 	 
H 	 -57.9476 	 -2.49182 	 -15.2697 	 
H 	 -57.1469 	 -3.07876 	 -16.8059 	 
H 	 -58.6775 	 -3.62553 	 -16.4232 	 
H 	 -54.4942 	 -0.303876 	 -23.1644 	 
H 	 -61.9012 	 1.62218 	 -19.7554 	 
