34

S 	 -107.994 	 64.41 	 -13.1292 	 
C 	 -108.126 	 65.3852 	 -11.6603 	 
C 	 -106.897 	 65.3972 	 -11.0221 	 
C 	 -105.944 	 64.5857 	 -11.7026 	 
C 	 -106.312 	 64.1003 	 -12.9311 	 
H 	 -104.952 	 64.4452 	 -11.359 	 
C 	 -106.584 	 66.0099 	 -9.64479 	 
H 	 -105.534 	 66.4074 	 -9.67938 	 
H 	 -106.969 	 65.2322 	 -8.97518 	 
C 	 -107.459 	 67.2334 	 -9.23456 	 
H 	 -107.158 	 68.1151 	 -9.84091 	 
H 	 -108.541 	 67.138 	 -9.50734 	 
C 	 -107.137 	 67.6197 	 -7.7833 	 
H 	 -107.47 	 66.9057 	 -7.10671 	 
H 	 -106.046 	 67.6666 	 -7.63446 	 
H 	 -107.551 	 68.5061 	 -7.39143 	 
S 	 -104.26 	 63.8496 	 -14.6375 	 
C 	 -104.193 	 62.6283 	 -15.8981 	 
C 	 -105.206 	 61.7123 	 -15.6 	 
C 	 -105.99 	 61.9483 	 -14.4194 	 
C 	 -105.64 	 63.1739 	 -13.8828 	 
H 	 -105.342 	 60.9253 	 -16.2943 	 
C 	 -107.162 	 61.129 	 -14.0232 	 
H 	 -107.471 	 60.6586 	 -14.9266 	 
H 	 -108.056 	 61.5818 	 -13.6306 	 
C 	 -106.895 	 60.1906 	 -12.8807 	 
H 	 -107.872 	 59.7944 	 -12.6315 	 
H 	 -106.52 	 60.7336 	 -12.0392 	 
C 	 -105.927 	 59.0084 	 -13.2041 	 
H 	 -105.986 	 58.4666 	 -12.2952 	 
H 	 -104.862 	 59.4107 	 -13.2846 	 
H 	 -106.147 	 58.245 	 -13.9914 	 
H 	 -108.992 	 65.9017 	 -11.2806 	 
H 	 -103.493 	 62.544 	 -16.7159 	 
