34

S 	 -59.6211 	 -56.1096 	 -84.058 	 
C 	 -60.287 	 -54.7518 	 -83.1479 	 
C 	 -60.7628 	 -55.1285 	 -81.9061 	 
C 	 -60.6757 	 -56.5756 	 -81.8124 	 
C 	 -60.0692 	 -57.2597 	 -82.8493 	 
H 	 -61.0323 	 -57.0748 	 -80.9912 	 
C 	 -61.5196 	 -54.2119 	 -80.9581 	 
H 	 -62.2936 	 -54.798 	 -80.4183 	 
H 	 -62.0369 	 -53.3906 	 -81.4353 	 
C 	 -60.6272 	 -53.455 	 -79.8663 	 
H 	 -59.8557 	 -54.1161 	 -79.5079 	 
H 	 -60.1097 	 -52.6086 	 -80.2605 	 
C 	 -61.4551 	 -52.8927 	 -78.7193 	 
H 	 -61.8013 	 -53.7339 	 -78.1531 	 
H 	 -61.0528 	 -51.9865 	 -78.1793 	 
H 	 -62.3777 	 -52.4989 	 -79.2072 	 
S 	 -59.5677 	 -59.6341 	 -81.6697 	 
C 	 -59.5057 	 -61.0843 	 -82.6154 	 
C 	 -59.441 	 -60.7851 	 -83.9316 	 
C 	 -59.7924 	 -59.4329 	 -84.2459 	 
C 	 -59.8308 	 -58.7033 	 -83.034 	 
H 	 -59.4398 	 -61.5936 	 -84.6515 	 
C 	 -59.9118 	 -58.8896 	 -85.6521 	 
H 	 -59.046 	 -58.1841 	 -85.669 	 
H 	 -60.8322 	 -58.2769 	 -85.8945 	 
C 	 -59.6228 	 -59.9871 	 -86.7166 	 
H 	 -60.2293 	 -60.8382 	 -86.562 	 
H 	 -58.6752 	 -60.4742 	 -86.4362 	 
C 	 -59.7515 	 -59.6049 	 -88.2082 	 
H 	 -60.74 	 -59.4286 	 -88.4663 	 
H 	 -59.2683 	 -60.4648 	 -88.7092 	 
H 	 -59.1005 	 -58.7763 	 -88.5046 	 
H 	 -60.5362 	 -53.775 	 -83.4951 	 
H 	 -59.2234 	 -62.0213 	 -82.196 	 
