34

S 	 -114.101 	 57.4407 	 -26.9623 	 
C 	 -112.899 	 57.8591 	 -25.7563 	 
C 	 -112.316 	 59.0815 	 -26.0107 	 
C 	 -113.005 	 59.749 	 -27.0498 	 
C 	 -113.958 	 58.9897 	 -27.7452 	 
H 	 -112.924 	 60.82 	 -27.3573 	 
C 	 -111.361 	 59.7664 	 -25.0652 	 
H 	 -110.573 	 60.2521 	 -25.6811 	 
H 	 -110.724 	 59.0051 	 -24.5184 	 
C 	 -111.927 	 60.8717 	 -24.1371 	 
H 	 -112.675 	 61.3946 	 -24.666 	 
H 	 -112.47 	 60.4382 	 -23.2862 	 
C 	 -110.897 	 61.8068 	 -23.4692 	 
H 	 -110.616 	 62.6115 	 -24.1974 	 
H 	 -111.321 	 62.3043 	 -22.6343 	 
H 	 -109.979 	 61.3616 	 -23.0085 	 
S 	 -114.64 	 58.4278 	 -30.4047 	 
C 	 -115.741 	 59.4481 	 -31.1593 	 
C 	 -116.279 	 60.3571 	 -30.3116 	 
C 	 -115.644 	 60.413 	 -29.0522 	 
C 	 -114.777 	 59.3405 	 -28.891 	 
H 	 -117.114 	 60.9776 	 -30.5118 	 
C 	 -116.158 	 61.3308 	 -28.0039 	 
H 	 -116.733 	 62.1324 	 -28.4045 	 
H 	 -115.324 	 61.9032 	 -27.6131 	 
C 	 -116.922 	 60.7484 	 -26.792 	 
H 	 -116.934 	 61.5487 	 -26.0935 	 
H 	 -116.457 	 59.9482 	 -26.2383 	 
C 	 -118.343 	 60.3216 	 -26.994 	 
H 	 -119.038 	 61.0509 	 -27.3796 	 
H 	 -118.734 	 59.7642 	 -26.1743 	 
H 	 -118.461 	 59.5798 	 -27.7643 	 
H 	 -112.565 	 57.2343 	 -24.9394 	 
H 	 -116.214 	 59.3497 	 -32.0562 	 
