34

S 	 -132.208 	 8.75028 	 -9.40155 	 
C 	 -131.244 	 7.35173 	 -9.68184 	 
C 	 -129.953 	 7.72407 	 -9.83088 	 
C 	 -129.728 	 9.11512 	 -9.86284 	 
C 	 -130.883 	 9.8362 	 -9.79735 	 
H 	 -128.774 	 9.58128 	 -10.0303 	 
C 	 -128.767 	 6.83064 	 -9.96927 	 
H 	 -128.23 	 7.33088 	 -10.7999 	 
H 	 -128.958 	 5.78271 	 -10.2758 	 
C 	 -127.694 	 6.88571 	 -8.79681 	 
H 	 -126.908 	 6.18851 	 -9.06402 	 
H 	 -127.209 	 7.85892 	 -8.91338 	 
C 	 -128.252 	 6.63124 	 -7.39436 	 
H 	 -128.876 	 7.42359 	 -7.11615 	 
H 	 -128.892 	 5.73576 	 -7.56516 	 
H 	 -127.404 	 6.48974 	 -6.59646 	 
S 	 -131.964 	 11.9692 	 -8.52795 	 
C 	 -131.761 	 13.5894 	 -9.17929 	 
C 	 -130.965 	 13.614 	 -10.2909 	 
C 	 -130.52 	 12.2641 	 -10.6676 	 
C 	 -131.055 	 11.2842 	 -9.80785 	 
H 	 -130.74 	 14.5684 	 -10.787 	 
C 	 -129.596 	 12.0159 	 -11.8231 	 
H 	 -128.905 	 11.3804 	 -11.3312 	 
H 	 -129.075 	 12.9737 	 -12.1466 	 
C 	 -130.276 	 11.4541 	 -13.0605 	 
H 	 -131.188 	 12.0533 	 -13.2172 	 
H 	 -130.626 	 10.4031 	 -12.9352 	 
C 	 -129.421 	 11.3068 	 -14.2859 	 
H 	 -130.133 	 11.0967 	 -15.0873 	 
H 	 -128.623 	 10.5612 	 -14.2198 	 
H 	 -128.91 	 12.2045 	 -14.6115 	 
H 	 -131.41 	 6.3035 	 -9.70195 	 
H 	 -132.204 	 14.5275 	 -8.73342 	 
