34

S 	 -58.2468 	 1.2385 	 -23.3655 	 
C 	 -56.6653 	 0.549279 	 -24.0463 	 
C 	 -55.7976 	 0.384023 	 -23.0102 	 
C 	 -56.3662 	 0.643416 	 -21.7141 	 
C 	 -57.6465 	 1.11941 	 -21.718 	 
H 	 -55.8428 	 0.587712 	 -20.7781 	 
C 	 -54.305 	 0.0125549 	 -23.2298 	 
H 	 -54.248 	 -1.01592 	 -23.6842 	 
H 	 -53.9866 	 -0.0997993 	 -22.2264 	 
C 	 -53.5143 	 1.10906 	 -23.8913 	 
H 	 -52.5294 	 0.818451 	 -24.224 	 
H 	 -54.1468 	 1.42377 	 -24.6623 	 
C 	 -53.4909 	 2.37836 	 -23.0064 	 
H 	 -53.1115 	 1.96569 	 -22.107 	 
H 	 -52.833 	 3.10998 	 -23.361 	 
H 	 -54.523 	 2.86043 	 -22.8316 	 
S 	 -59.5382 	 2.97904 	 -20.7572 	 
C 	 -59.8281 	 3.12012 	 -19.0226 	 
C 	 -59.282 	 2.07246 	 -18.4209 	 
C 	 -58.3525 	 1.31585 	 -19.2152 	 
C 	 -58.4297 	 1.64997 	 -20.5501 	 
H 	 -59.4494 	 1.76894 	 -17.3936 	 
C 	 -57.4771 	 0.228145 	 -18.5872 	 
H 	 -57.3691 	 -0.539449 	 -19.3061 	 
H 	 -58.1195 	 -0.196781 	 -17.7649 	 
C 	 -56.1696 	 0.776752 	 -18.017 	 
H 	 -56.4411 	 1.27526 	 -17.1133 	 
H 	 -55.6617 	 1.55882 	 -18.6661 	 
C 	 -55.1435 	 -0.423017 	 -17.8374 	 
H 	 -54.2157 	 -0.0999237 	 -17.3835 	 
H 	 -54.8729 	 -0.837931 	 -18.8564 	 
H 	 -55.539 	 -1.25965 	 -17.2398 	 
H 	 -56.4163 	 0.230165 	 -24.992 	 
H 	 -60.6555 	 3.71691 	 -18.5894 	 
