34

S 	 -56.8165 	 -0.154424 	 -18.8362 	 
C 	 -56.2416 	 -0.0833245 	 -17.1779 	 
C 	 -57.1012 	 0.561127 	 -16.3915 	 
C 	 -58.3398 	 0.844116 	 -17.0567 	 
C 	 -58.2761 	 0.637635 	 -18.4052 	 
H 	 -59.1963 	 1.22163 	 -16.5082 	 
C 	 -56.9149 	 0.89004 	 -14.9478 	 
H 	 -57.5626 	 1.70006 	 -14.677 	 
H 	 -55.8937 	 1.20979 	 -14.708 	 
C 	 -57.2376 	 -0.311209 	 -14.0927 	 
H 	 -58.1599 	 -0.83264 	 -14.4345 	 
H 	 -56.3976 	 -1.08725 	 -14.3453 	 
C 	 -57.3325 	 0.0932896 	 -12.6162 	 
H 	 -57.7428 	 -0.71344 	 -11.9562 	 
H 	 -56.4269 	 0.565779 	 -12.2194 	 
H 	 -58.1109 	 0.819551 	 -12.5725 	 
S 	 -58.5729 	 2.31595 	 -20.5982 	 
C 	 -60.0851 	 3.06248 	 -20.9174 	 
C 	 -61.0741 	 2.42042 	 -20.2306 	 
C 	 -60.6288 	 1.33115 	 -19.4038 	 
C 	 -59.2506 	 1.25331 	 -19.3772 	 
H 	 -62.1308 	 2.62334 	 -20.3371 	 
C 	 -61.5867 	 0.510226 	 -18.6089 	 
H 	 -62.6311 	 0.787938 	 -18.8621 	 
H 	 -61.5008 	 0.794313 	 -17.5514 	 
C 	 -61.4624 	 -1.01407 	 -18.7108 	 
H 	 -62.2081 	 -1.56076 	 -18.1785 	 
H 	 -60.6121 	 -1.42967 	 -18.2222 	 
C 	 -61.4451 	 -1.41032 	 -20.2485 	 
H 	 -61.7804 	 -0.67685 	 -21.0171 	 
H 	 -62.1423 	 -2.21066 	 -20.5542 	 
H 	 -60.5016 	 -1.79208 	 -20.6696 	 
H 	 -55.2931 	 -0.399762 	 -16.8706 	 
H 	 -60.368 	 3.86811 	 -21.5621 	 
