34

S 	 -97.8996 	 -26.1887 	 -61.0596 	 
C 	 -99.5812 	 -26.3977 	 -61.5405 	 
C 	 -100.121 	 -25.2204 	 -61.943 	 
C 	 -99.1992 	 -24.1306 	 -61.9973 	 
C 	 -97.9242 	 -24.4588 	 -61.5095 	 
H 	 -99.4852 	 -23.214 	 -62.3289 	 
C 	 -101.597 	 -25.0144 	 -62.3439 	 
H 	 -101.858 	 -24.0463 	 -61.9377 	 
H 	 -102.264 	 -25.7283 	 -61.8816 	 
C 	 -101.719 	 -24.9576 	 -63.9336 	 
H 	 -101.274 	 -23.9733 	 -64.2397 	 
H 	 -101.067 	 -25.719 	 -64.3264 	 
C 	 -103.225 	 -25.0074 	 -64.3357 	 
H 	 -103.693 	 -24.0938 	 -63.993 	 
H 	 -103.379 	 -24.9307 	 -65.467 	 
H 	 -103.849 	 -25.8414 	 -64.0274 	 
S 	 -95.966 	 -23.7583 	 -59.7424 	 
C 	 -95.1338 	 -22.2426 	 -59.9721 	 
C 	 -95.354 	 -21.7245 	 -61.2491 	 
C 	 -96.3665 	 -22.4811 	 -61.9972 	 
C 	 -96.8346 	 -23.5565 	 -61.2494 	 
H 	 -94.8041 	 -20.8142 	 -61.4976 	 
C 	 -96.8395 	 -22.0607 	 -63.3442 	 
H 	 -97.3999 	 -22.9982 	 -63.6644 	 
H 	 -96.0314 	 -21.918 	 -64.096 	 
C 	 -97.8147 	 -20.8576 	 -63.3006 	 
H 	 -97.2113 	 -19.9915 	 -63.0494 	 
H 	 -98.4415 	 -21.0934 	 -62.4436 	 
C 	 -98.6923 	 -20.5158 	 -64.5031 	 
H 	 -99.3555 	 -19.7736 	 -64.2355 	 
H 	 -99.3805 	 -21.3556 	 -64.7952 	 
H 	 -98.1665 	 -20.088 	 -65.3878 	 
H 	 -100.104 	 -27.336 	 -61.7329 	 
H 	 -94.6071 	 -21.7131 	 -59.2629 	 
