34

S 	 -135.472 	 73.9963 	 -68.079 	 
C 	 -134.008 	 74.7891 	 -67.8853 	 
C 	 -133.753 	 75.1416 	 -66.6053 	 
C 	 -134.82 	 74.6646 	 -65.7382 	 
C 	 -135.885 	 74.0963 	 -66.3902 	 
H 	 -134.978 	 74.8977 	 -64.6756 	 
C 	 -132.451 	 75.7581 	 -66.1272 	 
H 	 -131.979 	 76.3484 	 -66.9073 	 
H 	 -131.7 	 74.9781 	 -65.9939 	 
C 	 -132.567 	 76.7388 	 -64.9437 	 
H 	 -133.029 	 76.2697 	 -64.0339 	 
H 	 -131.696 	 77.0452 	 -64.5201 	 
C 	 -133.235 	 78.1256 	 -65.2612 	 
H 	 -134.27 	 77.9726 	 -65.1591 	 
H 	 -133.056 	 78.9135 	 -64.4746 	 
H 	 -133.037 	 78.5153 	 -66.2592 	 
S 	 -137.486 	 71.9076 	 -65.6795 	 
C 	 -138.938 	 72.1941 	 -64.8061 	 
C 	 -138.984 	 73.4435 	 -64.3605 	 
C 	 -137.986 	 74.3027 	 -64.8859 	 
C 	 -137.15 	 73.6082 	 -65.7698 	 
H 	 -139.755 	 73.7424 	 -63.6899 	 
C 	 -137.825 	 75.7266 	 -64.3847 	 
H 	 -137.096 	 76.1398 	 -65.0841 	 
H 	 -137.365 	 75.7086 	 -63.4017 	 
C 	 -139.072 	 76.5893 	 -64.4374 	 
H 	 -138.776 	 77.5726 	 -64.0067 	 
H 	 -139.785 	 76.0835 	 -63.7621 	 
C 	 -139.626 	 76.7762 	 -65.8834 	 
H 	 -138.839 	 76.9582 	 -66.6831 	 
H 	 -140.438 	 77.4755 	 -65.9948 	 
H 	 -139.994 	 75.8206 	 -66.2057 	 
H 	 -133.174 	 74.8912 	 -68.6095 	 
H 	 -139.66 	 71.4503 	 -64.5666 	 
