34

S 	 -105.925 	 23.1891 	 -111.866 	 
C 	 -105.411 	 23.5704 	 -110.209 	 
C 	 -105.492 	 22.4748 	 -109.392 	 
C 	 -106.097 	 21.3582 	 -110.054 	 
C 	 -106.43 	 21.5881 	 -111.347 	 
H 	 -106.475 	 20.4474 	 -109.638 	 
C 	 -105.165 	 22.431 	 -107.93 	 
H 	 -105.498 	 21.495 	 -107.425 	 
H 	 -105.673 	 23.2371 	 -107.405 	 
C 	 -103.657 	 22.4976 	 -107.627 	 
H 	 -103.311 	 23.3445 	 -108.116 	 
H 	 -103.65 	 22.7362 	 -106.63 	 
C 	 -102.906 	 21.2361 	 -108.007 	 
H 	 -103.06 	 21.1502 	 -109.05 	 
H 	 -101.819 	 21.2001 	 -107.716 	 
H 	 -103.434 	 20.3763 	 -107.508 	 
S 	 -108.616 	 21.5406 	 -112.913 	 
C 	 -108.964 	 20.0922 	 -113.9 	 
C 	 -108.107 	 19.0718 	 -113.589 	 
C 	 -107.067 	 19.4524 	 -112.679 	 
C 	 -107.151 	 20.8054 	 -112.298 	 
H 	 -108.344 	 18.0999 	 -113.936 	 
C 	 -106.073 	 18.4523 	 -112.248 	 
H 	 -106.509 	 17.4543 	 -112.35 	 
H 	 -105.996 	 18.5608 	 -111.113 	 
C 	 -104.695 	 18.4804 	 -112.915 	 
H 	 -104.913 	 18.6426 	 -114.062 	 
H 	 -104.258 	 17.4328 	 -112.848 	 
C 	 -103.656 	 19.5328 	 -112.364 	 
H 	 -102.746 	 19.5543 	 -112.943 	 
H 	 -103.386 	 19.1979 	 -111.343 	 
H 	 -104.12 	 20.5275 	 -112.337 	 
H 	 -104.925 	 24.4952 	 -109.88 	 
H 	 -109.897 	 20.0607 	 -114.463 	 
