34

S 	 -32.0556 	 -36.5969 	 -94.0005 	 
C 	 -30.7331 	 -36.455 	 -92.8488 	 
C 	 -31.1252 	 -35.9621 	 -91.6562 	 
C 	 -32.506 	 -35.7999 	 -91.5793 	 
C 	 -33.0874 	 -35.7975 	 -92.803 	 
H 	 -33.0218 	 -35.4005 	 -90.7141 	 
C 	 -30.2698 	 -35.9286 	 -90.3691 	 
H 	 -30.7563 	 -36.2853 	 -89.443 	 
H 	 -29.9642 	 -34.8831 	 -90.1912 	 
C 	 -29.0002 	 -36.7883 	 -90.4008 	 
H 	 -28.1767 	 -36.3557 	 -90.9693 	 
H 	 -28.6144 	 -36.7844 	 -89.3522 	 
C 	 -29.1931 	 -38.2847 	 -90.8097 	 
H 	 -29.0039 	 -38.3991 	 -91.8585 	 
H 	 -28.6676 	 -39.1003 	 -90.2558 	 
H 	 -30.1923 	 -38.4928 	 -90.5274 	 
S 	 -35.316 	 -37.0613 	 -93.8488 	 
C 	 -36.6706 	 -35.9863 	 -94.3068 	 
C 	 -36.6589 	 -34.8964 	 -93.5418 	 
C 	 -35.4459 	 -34.6328 	 -92.8331 	 
C 	 -34.5433 	 -35.6091 	 -93.1554 	 
H 	 -37.5086 	 -34.2577 	 -93.597 	 
C 	 -35.1817 	 -33.2813 	 -92.1636 	 
H 	 -34.726 	 -33.4438 	 -91.1945 	 
H 	 -36.127 	 -32.7109 	 -91.8692 	 
C 	 -34.3113 	 -32.4041 	 -92.9984 	 
H 	 -34.9243 	 -32.1934 	 -93.8445 	 
H 	 -33.3561 	 -32.8716 	 -93.2446 	 
C 	 -33.973 	 -31.0374 	 -92.35 	 
H 	 -33.3824 	 -30.4691 	 -93.1 	 
H 	 -33.3691 	 -31.2653 	 -91.4879 	 
H 	 -34.7611 	 -30.4779 	 -91.9649 	 
H 	 -29.6875 	 -36.7463 	 -93.0538 	 
H 	 -37.5819 	 -36.4251 	 -94.8042 	 
