34

S 	 -105.829 	 3.86059 	 -105.138 	 
C 	 -105.296 	 5.37559 	 -104.346 	 
C 	 -103.982 	 5.22745 	 -103.935 	 
C 	 -103.426 	 3.95323 	 -104.343 	 
C 	 -104.25 	 3.1143 	 -105.072 	 
H 	 -102.483 	 3.57906 	 -104.151 	 
C 	 -103.115 	 6.29832 	 -103.441 	 
H 	 -102.067 	 5.83428 	 -103.313 	 
H 	 -103.546 	 6.5031 	 -102.433 	 
C 	 -103.036 	 7.53945 	 -104.312 	 
H 	 -102.809 	 7.07713 	 -105.272 	 
H 	 -104.073 	 7.91999 	 -104.331 	 
C 	 -102.099 	 8.61086 	 -103.715 	 
H 	 -102.026 	 9.47206 	 -104.33 	 
H 	 -102.252 	 8.85133 	 -102.677 	 
H 	 -101.085 	 8.1713 	 -103.688 	 
S 	 -105.245 	 0.785632 	 -106.102 	 
C 	 -104.182 	 -0.355817 	 -106.879 	 
C 	 -102.863 	 -0.0771217 	 -106.656 	 
C 	 -102.732 	 1.23677 	 -106.095 	 
C 	 -103.912 	 1.82011 	 -105.681 	 
H 	 -101.967 	 -0.641132 	 -106.774 	 
C 	 -101.35 	 1.81819 	 -105.902 	 
H 	 -101.515 	 2.91732 	 -105.901 	 
H 	 -100.618 	 1.70748 	 -106.727 	 
C 	 -100.702 	 1.32193 	 -104.574 	 
H 	 -100.334 	 0.343856 	 -104.64 	 
H 	 -101.535 	 1.33673 	 -103.866 	 
C 	 -99.4334 	 2.1178 	 -104.008 	 
H 	 -99.6506 	 3.22898 	 -103.932 	 
H 	 -98.5516 	 1.9839 	 -104.652 	 
H 	 -99.1869 	 1.71048 	 -102.997 	 
H 	 -105.829 	 6.25838 	 -104.295 	 
H 	 -104.436 	 -1.35933 	 -107.297 	 
