34

S 	 -52.7027 	 -49.3916 	 -77.6098 	 
C 	 -53.5369 	 -47.8329 	 -77.7634 	 
C 	 -53.167 	 -46.9851 	 -76.741 	 
C 	 -52.2745 	 -47.6417 	 -75.8194 	 
C 	 -51.7832 	 -48.877 	 -76.2812 	 
H 	 -52.015 	 -47.1021 	 -74.9421 	 
C 	 -53.6326 	 -45.5629 	 -76.6363 	 
H 	 -53.3302 	 -45.2948 	 -75.676 	 
H 	 -54.7433 	 -45.6554 	 -76.711 	 
C 	 -52.9198 	 -44.5666 	 -77.6288 	 
H 	 -53.191 	 -44.8513 	 -78.6338 	 
H 	 -53.2176 	 -43.5407 	 -77.4234 	 
C 	 -51.425 	 -44.6453 	 -77.4103 	 
H 	 -51.0346 	 -44.1006 	 -78.2183 	 
H 	 -51.0047 	 -44.3395 	 -76.4936 	 
H 	 -51.1029 	 -45.6544 	 -77.5285 	 
S 	 -50.4719 	 -51.2634 	 -76.4829 	 
C 	 -49.4766 	 -51.7515 	 -75.1341 	 
C 	 -49.4154 	 -50.8792 	 -74.0685 	 
C 	 -50.235 	 -49.676 	 -74.377 	 
C 	 -50.8816 	 -49.8019 	 -75.5839 	 
H 	 -48.8904 	 -51.1599 	 -73.202 	 
C 	 -50.3039 	 -48.5676 	 -73.3822 	 
H 	 -50.1082 	 -47.6135 	 -73.8059 	 
H 	 -49.4868 	 -48.7286 	 -72.7547 	 
C 	 -51.5481 	 -48.4882 	 -72.4368 	 
H 	 -51.5041 	 -49.3321 	 -71.7206 	 
H 	 -52.5085 	 -48.533 	 -72.9465 	 
C 	 -51.6059 	 -47.1825 	 -71.6475 	 
H 	 -50.6151 	 -46.8801 	 -71.2493 	 
H 	 -52.4137 	 -47.1123 	 -70.9446 	 
H 	 -51.8979 	 -46.383 	 -72.3751 	 
H 	 -54.3237 	 -47.5763 	 -78.5397 	 
H 	 -48.8872 	 -52.674 	 -75.0021 	 
