34

S 	 39.6811 	 -31.8379 	 -112.093 	 
C 	 39.0007 	 -33.3539 	 -112.562 	 
C 	 39.3561 	 -33.6987 	 -113.887 	 
C 	 40.3109 	 -32.7964 	 -114.383 	 
C 	 40.6186 	 -31.8052 	 -113.504 	 
H 	 40.8969 	 -32.9562 	 -115.305 	 
C 	 38.784 	 -34.9215 	 -114.593 	 
H 	 38.4993 	 -35.6309 	 -113.789 	 
H 	 39.5702 	 -35.3985 	 -115.202 	 
C 	 37.4605 	 -34.7372 	 -115.332 	 
H 	 36.6599 	 -34.7589 	 -114.554 	 
H 	 37.4901 	 -33.7235 	 -115.759 	 
C 	 37.3253 	 -35.7674 	 -116.432 	 
H 	 37.5611 	 -36.8061 	 -116.137 	 
H 	 36.2714 	 -35.8217 	 -116.734 	 
H 	 37.8457 	 -35.5631 	 -117.381 	 
S 	 41.3436 	 -29.6737 	 -115.106 	 
C 	 42.8444 	 -28.9799 	 -114.73 	 
C 	 43.5753 	 -29.6298 	 -113.747 	 
C 	 42.8391 	 -30.6081 	 -113.126 	 
C 	 41.5771 	 -30.7316 	 -113.727 	 
H 	 44.5666 	 -29.3473 	 -113.577 	 
C 	 43.4247 	 -31.5171 	 -112.04 	 
H 	 42.8761 	 -32.4943 	 -111.913 	 
H 	 43.2854 	 -30.934 	 -111.068 	 
C 	 44.9182 	 -31.8541 	 -112.127 	 
H 	 45.2164 	 -32.3445 	 -111.202 	 
H 	 45.5473 	 -30.9653 	 -112.164 	 
C 	 45.2038 	 -32.7486 	 -113.312 	 
H 	 44.6182 	 -33.7234 	 -113.212 	 
H 	 46.184 	 -33.0428 	 -113.226 	 
H 	 44.9941 	 -32.32 	 -114.312 	 
H 	 38.3775 	 -33.9454 	 -111.898 	 
H 	 43.2751 	 -28.195 	 -115.361 	 
