34

S 	 -122.13 	 67.8651 	 -39.27 	 
C 	 -121.388 	 68.2336 	 -37.748 	 
C 	 -122.246 	 67.9484 	 -36.7057 	 
C 	 -123.373 	 67.1705 	 -37.0403 	 
C 	 -123.546 	 67.0667 	 -38.4353 	 
H 	 -124.064 	 66.8433 	 -36.3265 	 
C 	 -122.018 	 68.5066 	 -35.3441 	 
H 	 -122.978 	 68.9945 	 -35.059 	 
H 	 -121.313 	 69.3404 	 -35.381 	 
C 	 -121.728 	 67.3314 	 -34.2558 	 
H 	 -121.374 	 67.8271 	 -33.3385 	 
H 	 -122.604 	 66.7831 	 -33.9031 	 
C 	 -120.481 	 66.4584 	 -34.671 	 
H 	 -120.637 	 66.0405 	 -35.6557 	 
H 	 -119.634 	 67.1113 	 -34.752 	 
H 	 -120.386 	 65.7494 	 -33.8784 	 
S 	 -125.401 	 67.1883 	 -40.5526 	 
C 	 -126.448 	 65.759 	 -40.7961 	 
C 	 -126.213 	 64.8155 	 -39.8868 	 
C 	 -125.191 	 65.1477 	 -38.973 	 
C 	 -124.555 	 66.3731 	 -39.2073 	 
H 	 -126.793 	 63.9652 	 -39.8262 	 
C 	 -124.702 	 64.1521 	 -37.9656 	 
H 	 -125.323 	 63.2601 	 -38.0112 	 
H 	 -125.106 	 64.7034 	 -37.1233 	 
C 	 -123.185 	 63.7564 	 -37.9658 	 
H 	 -122.585 	 64.6174 	 -38.0186 	 
H 	 -123.12 	 63.1206 	 -38.8683 	 
C 	 -122.967 	 63.0126 	 -36.6611 	 
H 	 -121.924 	 62.8136 	 -36.4473 	 
H 	 -123.434 	 62.0698 	 -36.7479 	 
H 	 -123.43 	 63.5152 	 -35.7305 	 
H 	 -120.594 	 68.9637 	 -37.5564 	 
H 	 -127.098 	 65.6876 	 -41.7247 	 
