34

S 	 -125.688 	 64.5765 	 -48.5066 	 
C 	 -124.352 	 65.0321 	 -49.4756 	 
C 	 -124.728 	 65.4827 	 -50.7167 	 
C 	 -126.137 	 65.2776 	 -50.9445 	 
C 	 -126.872 	 64.8446 	 -49.7818 	 
H 	 -126.784 	 65.4585 	 -51.7636 	 
C 	 -123.68 	 65.8993 	 -51.7436 	 
H 	 -122.858 	 66.2991 	 -51.1759 	 
H 	 -124.099 	 66.7476 	 -52.3726 	 
C 	 -122.987 	 64.8165 	 -52.5864 	 
H 	 -122.647 	 63.9454 	 -51.97 	 
H 	 -123.725 	 64.4618 	 -53.2589 	 
C 	 -121.734 	 65.3742 	 -53.3826 	 
H 	 -122.065 	 66.0966 	 -54.2061 	 
H 	 -120.959 	 65.9099 	 -52.802 	 
H 	 -121.287 	 64.6254 	 -53.9899 	 
S 	 -128.935 	 62.989 	 -49.2826 	 
C 	 -130.612 	 63.4617 	 -49.5454 	 
C 	 -130.662 	 64.7502 	 -50.0542 	 
C 	 -129.4 	 65.3888 	 -50.2057 	 
C 	 -128.341 	 64.6473 	 -49.7257 	 
H 	 -131.619 	 65.1865 	 -50.2421 	 
C 	 -129.257 	 66.7774 	 -50.8179 	 
H 	 -130.309 	 67.0412 	 -51.2012 	 
H 	 -128.581 	 66.6055 	 -51.6715 	 
C 	 -128.885 	 67.9945 	 -49.8181 	 
H 	 -127.87 	 67.668 	 -49.4626 	 
H 	 -129.524 	 68.0774 	 -48.876 	 
C 	 -128.89 	 69.4485 	 -50.5289 	 
H 	 -128.25 	 69.5874 	 -51.4302 	 
H 	 -128.792 	 70.2198 	 -49.7823 	 
H 	 -129.905 	 69.6439 	 -50.7949 	 
H 	 -123.372 	 65.1124 	 -48.9846 	 
H 	 -131.46 	 62.8218 	 -49.4651 	 
