34

S 	 -59.922 	 -58.2943 	 -76.6875 	 
C 	 -61.4507 	 -58.4196 	 -75.8696 	 
C 	 -62.1192 	 -57.2065 	 -75.8243 	 
C 	 -61.3826 	 -56.2219 	 -76.4954 	 
C 	 -60.2371 	 -56.6056 	 -77.073 	 
H 	 -61.8302 	 -55.2146 	 -76.6741 	 
C 	 -63.554 	 -57.1718 	 -75.3006 	 
H 	 -64.0178 	 -58.0245 	 -75.729 	 
H 	 -63.9425 	 -56.3318 	 -75.9342 	 
C 	 -63.9485 	 -57.0069 	 -73.793 	 
H 	 -63.8943 	 -55.9583 	 -73.3338 	 
H 	 -65.1428 	 -57.1473 	 -73.7344 	 
C 	 -63.414 	 -58.0594 	 -72.7647 	 
H 	 -63.8608 	 -58.998 	 -72.9587 	 
H 	 -62.3421 	 -58.195 	 -72.8907 	 
H 	 -63.6406 	 -57.7625 	 -71.7293 	 
S 	 -58.3024 	 -56.8635 	 -79.005 	 
C 	 -57.3411 	 -55.5407 	 -79.4093 	 
C 	 -57.6242 	 -54.436 	 -78.6499 	 
C 	 -58.6042 	 -54.6602 	 -77.6007 	 
C 	 -59.22 	 -55.8783 	 -77.8034 	 
H 	 -57.2001 	 -53.4987 	 -78.8621 	 
C 	 -58.9827 	 -53.5253 	 -76.6851 	 
H 	 -60.0694 	 -53.4361 	 -76.6197 	 
H 	 -58.7002 	 -52.5879 	 -77.1575 	 
C 	 -58.3103 	 -53.6591 	 -75.2883 	 
H 	 -58.4283 	 -52.8015 	 -74.6867 	 
H 	 -57.2399 	 -53.4773 	 -75.2913 	 
C 	 -58.8534 	 -54.8084 	 -74.4401 	 
H 	 -58.5362 	 -54.7754 	 -73.4451 	 
H 	 -58.493 	 -55.6873 	 -74.9263 	 
H 	 -59.8982 	 -54.7882 	 -74.4437 	 
H 	 -61.8638 	 -59.3592 	 -75.4564 	 
H 	 -56.4953 	 -55.5593 	 -80.0501 	 
