34

S 	 -135.891 	 8.4338 	 -12.7938 	 
C 	 -135.576 	 9.8986 	 -13.7285 	 
C 	 -134.91 	 10.8571 	 -12.9822 	 
C 	 -134.472 	 10.2821 	 -11.7381 	 
C 	 -134.793 	 8.96805 	 -11.524 	 
H 	 -134.017 	 10.7982 	 -10.8914 	 
C 	 -134.428 	 12.217 	 -13.453 	 
H 	 -134.638 	 12.4189 	 -14.5246 	 
H 	 -133.259 	 12.1932 	 -13.3698 	 
C 	 -134.958 	 13.4139 	 -12.7049 	 
H 	 -134.717 	 14.304 	 -13.3326 	 
H 	 -136.054 	 13.3105 	 -12.6312 	 
C 	 -134.353 	 13.7859 	 -11.3293 	 
H 	 -134.73 	 14.7177 	 -10.93 	 
H 	 -134.459 	 12.9409 	 -10.5261 	 
H 	 -133.308 	 14.0777 	 -11.4554 	 
S 	 -135.94 	 7.26987 	 -9.72977 	 
C 	 -135.122 	 6.79536 	 -8.26492 	 
C 	 -133.834 	 7.14894 	 -8.35935 	 
C 	 -133.462 	 8.03531 	 -9.40944 	 
C 	 -134.495 	 8.1312 	 -10.342 	 
H 	 -133.264 	 6.91164 	 -7.46671 	 
C 	 -132.035 	 8.74831 	 -9.59898 	 
H 	 -131.981 	 8.97727 	 -10.6455 	 
H 	 -131.284 	 8.0114 	 -9.34557 	 
C 	 -131.871 	 10.0795 	 -8.88181 	 
H 	 -132.515 	 10.751 	 -9.31701 	 
H 	 -130.842 	 10.4201 	 -8.85904 	 
C 	 -132.389 	 10.0473 	 -7.44523 	 
H 	 -133.454 	 9.81396 	 -7.31308 	 
H 	 -132.342 	 11.0633 	 -7.04072 	 
H 	 -131.816 	 9.34855 	 -6.82205 	 
H 	 -136.052 	 10.1427 	 -14.6228 	 
H 	 -135.573 	 6.32495 	 -7.3872 	 
