34

S 	 -126.476 	 60.9524 	 -59.6885 	 
C 	 -126.029 	 62.6686 	 -59.505 	 
C 	 -126.705 	 63.2691 	 -58.4513 	 
C 	 -127.571 	 62.3499 	 -57.7978 	 
C 	 -127.394 	 61.0217 	 -58.1816 	 
H 	 -128.261 	 62.474 	 -56.9068 	 
C 	 -126.666 	 64.7662 	 -57.9627 	 
H 	 -125.794 	 64.8041 	 -57.388 	 
H 	 -127.394 	 65.0337 	 -57.1534 	 
C 	 -126.625 	 65.7835 	 -59.1561 	 
H 	 -126.243 	 66.7109 	 -58.7432 	 
H 	 -125.955 	 65.6219 	 -60.0473 	 
C 	 -128.041 	 66.1094 	 -59.7345 	 
H 	 -128.426 	 65.1619 	 -60.2262 	 
H 	 -128.678 	 66.4743 	 -58.9311 	 
H 	 -128.12 	 66.9848 	 -60.4466 	 
S 	 -127.07 	 58.7332 	 -56.7625 	 
C 	 -128.445 	 57.8499 	 -56.2609 	 
C 	 -129.6 	 58.5126 	 -56.5302 	 
C 	 -129.405 	 59.6903 	 -57.2434 	 
C 	 -128.082 	 59.915 	 -57.5086 	 
H 	 -130.567 	 58.0754 	 -56.1488 	 
C 	 -130.616 	 60.4761 	 -57.7079 	 
H 	 -130.179 	 61.127 	 -58.3836 	 
H 	 -131.094 	 60.9023 	 -56.8181 	 
C 	 -131.682 	 59.7695 	 -58.4138 	 
H 	 -132.011 	 58.9756 	 -57.7791 	 
H 	 -131.175 	 59.321 	 -59.2112 	 
C 	 -132.912 	 60.5231 	 -58.936 	 
H 	 -132.695 	 61.1811 	 -59.785 	 
H 	 -133.251 	 61.204 	 -58.2038 	 
H 	 -133.695 	 59.8721 	 -59.1997 	 
H 	 -125.517 	 63.2324 	 -60.2156 	 
H 	 -128.449 	 57.013 	 -55.5588 	 
