34

S 	 -102.942 	 -1.99902 	 -120.217 	 
C 	 -104.498 	 -1.42785 	 -120.62 	 
C 	 -105.021 	 -0.50139 	 -119.71 	 
C 	 -104.07 	 -0.22514 	 -118.661 	 
C 	 -102.861 	 -0.925628 	 -118.752 	 
H 	 -104.274 	 0.406596 	 -117.822 	 
C 	 -106.24 	 0.239899 	 -119.881 	 
H 	 -106.673 	 -0.271287 	 -120.766 	 
H 	 -105.931 	 1.19939 	 -120.241 	 
C 	 -107.085 	 0.395492 	 -118.616 	 
H 	 -107.06 	 -0.388775 	 -117.87 	 
H 	 -106.719 	 1.18369 	 -118 	 
C 	 -108.591 	 0.708074 	 -118.805 	 
H 	 -109.141 	 0.414421 	 -117.934 	 
H 	 -108.917 	 1.72911 	 -118.992 	 
H 	 -108.967 	 -0.00158668 	 -119.539 	 
S 	 -101.345 	 0.495455 	 -116.929 	 
C 	 -100.217 	 -0.385116 	 -115.943 	 
C 	 -100.092 	 -1.71777 	 -116.374 	 
C 	 -100.685 	 -1.96646 	 -117.653 	 
C 	 -101.657 	 -0.957297 	 -117.877 	 
H 	 -99.4692 	 -2.38635 	 -115.755 	 
C 	 -100.533 	 -3.40677 	 -118.193 	 
H 	 -101.533 	 -3.64546 	 -118.726 	 
H 	 -100.376 	 -4.15122 	 -117.372 	 
C 	 -99.3582 	 -3.64923 	 -119.173 	 
H 	 -99.4723 	 -3.22195 	 -120.167 	 
H 	 -99.3956 	 -4.73683 	 -119.284 	 
C 	 -97.9848 	 -3.28269 	 -118.758 	 
H 	 -97.6842 	 -2.18661 	 -118.744 	 
H 	 -97.2799 	 -3.74423 	 -119.543 	 
H 	 -97.8422 	 -3.51178 	 -117.677 	 
H 	 -104.875 	 -1.61612 	 -121.607 	 
H 	 -99.9019 	 -0.0285577 	 -114.878 	 
