34

S 	 -120.061 	 65.8856 	 -63.1098 	 
C 	 -120.435 	 64.6139 	 -64.3419 	 
C 	 -120.669 	 63.4236 	 -63.6864 	 
C 	 -120.668 	 63.5645 	 -62.2691 	 
C 	 -120.375 	 64.8193 	 -61.8085 	 
H 	 -120.745 	 62.7852 	 -61.5234 	 
C 	 -121.014 	 62.0731 	 -64.3458 	 
H 	 -120.21 	 61.3066 	 -64.3375 	 
H 	 -121.273 	 62.2492 	 -65.3555 	 
C 	 -122.275 	 61.4031 	 -63.7355 	 
H 	 -122.225 	 61.2283 	 -62.6753 	 
H 	 -123.125 	 62.1445 	 -63.744 	 
C 	 -122.802 	 60.1143 	 -64.5044 	 
H 	 -123.054 	 60.4116 	 -65.5891 	 
H 	 -122.075 	 59.3205 	 -64.5393 	 
H 	 -123.696 	 59.6123 	 -64.0872 	 
S 	 -121.409 	 65.6483 	 -59.3543 	 
C 	 -120.352 	 65.7529 	 -58.0109 	 
C 	 -119.065 	 65.3348 	 -58.3691 	 
C 	 -118.901 	 64.8256 	 -59.7257 	 
C 	 -120.088 	 65.1003 	 -60.3959 	 
H 	 -118.373 	 65.1797 	 -57.5346 	 
C 	 -117.676 	 64.1983 	 -60.2604 	 
H 	 -118.005 	 63.3905 	 -60.8977 	 
H 	 -117.11 	 63.7184 	 -59.4592 	 
C 	 -116.656 	 65.0891 	 -60.9545 	 
H 	 -117.2 	 65.6455 	 -61.6954 	 
H 	 -115.928 	 64.3482 	 -61.3855 	 
C 	 -115.93 	 66.1999 	 -60.0858 	 
H 	 -116.799 	 66.7068 	 -59.6771 	 
H 	 -115.262 	 66.7599 	 -60.685 	 
H 	 -115.453 	 65.7118 	 -59.1726 	 
H 	 -120.52 	 64.7609 	 -65.4581 	 
H 	 -120.813 	 65.8903 	 -57.0156 	 
