34

S 	 -110.615 	 55.1584 	 -90.8195 	 
C 	 -110.461 	 56.2212 	 -89.4116 	 
C 	 -111.264 	 55.7192 	 -88.387 	 
C 	 -112.081 	 54.6367 	 -88.783 	 
C 	 -111.682 	 54.0651 	 -89.9523 	 
H 	 -112.921 	 54.2171 	 -88.2737 	 
C 	 -111.351 	 56.3015 	 -86.9883 	 
H 	 -112.342 	 56.6029 	 -86.7523 	 
H 	 -110.791 	 57.2367 	 -86.966 	 
C 	 -110.929 	 55.3957 	 -85.8059 	 
H 	 -110.682 	 56.0992 	 -84.9633 	 
H 	 -111.779 	 54.8034 	 -85.409 	 
C 	 -109.747 	 54.5158 	 -86.0612 	 
H 	 -108.894 	 55.0898 	 -86.3388 	 
H 	 -109.526 	 53.8179 	 -85.2302 	 
H 	 -109.906 	 53.9516 	 -86.986 	 
S 	 -112.957 	 53.3647 	 -92.2971 	 
C 	 -113.5 	 51.7227 	 -92.4819 	 
C 	 -113.344 	 50.9941 	 -91.3214 	 
C 	 -112.578 	 51.6597 	 -90.3083 	 
C 	 -112.314 	 52.9696 	 -90.6783 	 
H 	 -113.717 	 50.0076 	 -91.1696 	 
C 	 -112.267 	 51.0793 	 -88.9539 	 
H 	 -112.631 	 50.0742 	 -88.8603 	 
H 	 -112.758 	 51.6353 	 -88.2074 	 
C 	 -110.746 	 50.9736 	 -88.5647 	 
H 	 -110.614 	 50.6461 	 -87.5788 	 
H 	 -110.43 	 51.9868 	 -88.6525 	 
C 	 -109.86 	 49.9583 	 -89.3491 	 
H 	 -108.761 	 50.0878 	 -89.1577 	 
H 	 -110.093 	 50.0513 	 -90.452 	 
H 	 -110.082 	 48.8668 	 -89.2598 	 
H 	 -109.787 	 57.079 	 -89.3867 	 
H 	 -114.121 	 51.3897 	 -93.2929 	 
