34

S 	 -106.456 	 47.8966 	 -94.5732 	 
C 	 -105.76 	 49.5819 	 -94.6937 	 
C 	 -106.287 	 50.2914 	 -95.7229 	 
C 	 -106.953 	 49.3562 	 -96.5608 	 
C 	 -107.154 	 48.0447 	 -96.0846 	 
H 	 -107.272 	 49.5072 	 -97.603 	 
C 	 -105.982 	 51.7264 	 -96.0608 	 
H 	 -106.262 	 51.9859 	 -97.0675 	 
H 	 -104.922 	 51.8114 	 -96.0103 	 
C 	 -106.679 	 52.7604 	 -95.1896 	 
H 	 -106.363 	 53.786 	 -95.4843 	 
H 	 -107.751 	 52.57 	 -95.2927 	 
C 	 -106.305 	 52.6193 	 -93.7206 	 
H 	 -105.213 	 52.7875 	 -93.5301 	 
H 	 -106.811 	 53.4306 	 -93.1407 	 
H 	 -106.681 	 51.7084 	 -93.357 	 
S 	 -108.605 	 45.6221 	 -95.8752 	 
C 	 -108.796 	 44.6522 	 -97.2893 	 
C 	 -108.13 	 45.216 	 -98.4108 	 
C 	 -107.414 	 46.3883 	 -98.0815 	 
C 	 -107.633 	 46.818 	 -96.7756 	 
H 	 -108.227 	 44.8123 	 -99.361 	 
C 	 -106.481 	 47.0297 	 -99.1476 	 
H 	 -105.593 	 46.3703 	 -99.1835 	 
H 	 -106.088 	 47.9875 	 -98.867 	 
C 	 -107.055 	 47.2459 	 -100.666 	 
H 	 -108.069 	 47.6868 	 -100.649 	 
H 	 -107.211 	 46.3415 	 -101.172 	 
C 	 -106.3 	 48.2688 	 -101.499 	 
H 	 -106.793 	 48.4079 	 -102.458 	 
H 	 -105.25 	 48.0351 	 -101.645 	 
H 	 -106.268 	 49.1829 	 -100.908 	 
H 	 -105.052 	 49.9854 	 -93.9451 	 
H 	 -109.356 	 43.6996 	 -97.3923 	 
