34

S 	 -58.3846 	 19.9853 	 -100.329 	 
C 	 -60.0233 	 20.333 	 -99.7895 	 
C 	 -60.6449 	 19.1928 	 -99.26 	 
C 	 -59.7821 	 18.0645 	 -99.2026 	 
C 	 -58.5909 	 18.2717 	 -99.8908 	 
H 	 -59.9228 	 17.152 	 -98.6587 	 
C 	 -62.0454 	 19.1138 	 -98.5585 	 
H 	 -62.6726 	 18.7872 	 -99.3976 	 
H 	 -62.3319 	 20.0923 	 -98.1815 	 
C 	 -62.0969 	 18.2634 	 -97.2404 	 
H 	 -62.061 	 17.1417 	 -97.5048 	 
H 	 -61.2245 	 18.4581 	 -96.604 	 
C 	 -63.2871 	 18.4961 	 -96.4045 	 
H 	 -64.1076 	 17.9127 	 -96.8828 	 
H 	 -63.0185 	 18.2975 	 -95.4008 	 
H 	 -63.5344 	 19.5664 	 -96.5096 	 
S 	 -55.8793 	 17.8562 	 -99.5452 	 
C 	 -55.1902 	 16.4082 	 -100.217 	 
C 	 -56.1086 	 15.5385 	 -100.724 	 
C 	 -57.4497 	 16.075 	 -100.619 	 
C 	 -57.565 	 17.2882 	 -100.044 	 
H 	 -55.8447 	 14.6844 	 -101.293 	 
C 	 -58.5836 	 15.4006 	 -101.383 	 
H 	 -58.2062 	 15.1144 	 -102.288 	 
H 	 -59.4312 	 16.1836 	 -101.589 	 
C 	 -59.1128 	 14.0407 	 -100.775 	 
H 	 -59.3391 	 14.1604 	 -99.7431 	 
H 	 -58.3649 	 13.2855 	 -100.727 	 
C 	 -60.3173 	 13.5556 	 -101.58 	 
H 	 -60.7106 	 12.5803 	 -101.269 	 
H 	 -60.195 	 13.4753 	 -102.648 	 
H 	 -61.0556 	 14.3038 	 -101.509 	 
H 	 -60.5625 	 21.2496 	 -100.019 	 
H 	 -54.134 	 16.1828 	 -100.343 	 
