34

S 	 -66.2925 	 6.71758 	 17.2728 	 
C 	 -65.4057 	 8.15688 	 17.6885 	 
C 	 -64.4137 	 7.86173 	 18.6536 	 
C 	 -64.5254 	 6.50291 	 19.1227 	 
C 	 -65.3338 	 5.71549 	 18.3601 	 
H 	 -63.8608 	 6.12889 	 19.8715 	 
C 	 -63.4264 	 8.75383 	 19.4135 	 
H 	 -63.0018 	 8.21434 	 20.2824 	 
H 	 -64.0036 	 9.54704 	 19.922 	 
C 	 -62.3696 	 9.43901 	 18.5316 	 
H 	 -61.7883 	 8.85653 	 17.8062 	 
H 	 -62.9223 	 10.0834 	 17.8799 	 
C 	 -61.4308 	 10.2835 	 19.3792 	 
H 	 -60.5333 	 10.5899 	 18.897 	 
H 	 -61.9871 	 11.1343 	 19.7838 	 
H 	 -61.1367 	 9.61467 	 20.1677 	 
S 	 -66.8684 	 4.15979 	 20.0059 	 
C 	 -67.0795 	 2.5417 	 19.733 	 
C 	 -66.4525 	 2.12493 	 18.5399 	 
C 	 -65.7541 	 3.21434 	 17.9009 	 
C 	 -65.8603 	 4.40501 	 18.6334 	 
H 	 -66.4808 	 1.13493 	 18.1598 	 
C 	 -65.1273 	 3.02611 	 16.5636 	 
H 	 -64.6249 	 3.86873 	 16.221 	 
H 	 -65.9635 	 2.8887 	 15.8227 	 
C 	 -64.2749 	 1.74297 	 16.4757 	 
H 	 -64.8408 	 0.858978 	 16.5375 	 
H 	 -63.5503 	 1.65933 	 17.3042 	 
C 	 -63.5138 	 1.90007 	 15.1927 	 
H 	 -64.2261 	 1.7563 	 14.2913 	 
H 	 -62.7688 	 1.1561 	 15.1601 	 
H 	 -62.9606 	 2.8625 	 15.0752 	 
H 	 -65.6467 	 9.1728 	 17.4981 	 
H 	 -67.5856 	 1.87775 	 20.427 	 
