34

S 	 -80.0576 	 -19.6495 	 -45.3114 	 
C 	 -81.1806 	 -18.2815 	 -45.3106 	 
C 	 -81.4804 	 -17.8593 	 -46.5783 	 
C 	 -80.9005 	 -18.6866 	 -47.5832 	 
C 	 -80.2191 	 -19.7595 	 -47.0399 	 
H 	 -81.045 	 -18.6509 	 -48.631 	 
C 	 -82.327 	 -16.6486 	 -46.9192 	 
H 	 -82.76 	 -16.1832 	 -46.0439 	 
H 	 -83.2956 	 -16.8526 	 -47.4321 	 
C 	 -81.6272 	 -15.5472 	 -47.7147 	 
H 	 -81.1663 	 -16.0483 	 -48.5744 	 
H 	 -82.4278 	 -14.8819 	 -48.0707 	 
C 	 -80.6082 	 -14.7349 	 -46.917 	 
H 	 -81.0933 	 -14.1466 	 -46.1539 	 
H 	 -79.7306 	 -15.2338 	 -46.5392 	 
H 	 -80.2105 	 -13.9712 	 -47.5148 	 
S 	 -78.3906 	 -21.9226 	 -46.9561 	 
C 	 -78.0805 	 -22.9216 	 -48.348 	 
C 	 -78.7768 	 -22.4473 	 -49.4107 	 
C 	 -79.6209 	 -21.2763 	 -49.1323 	 
C 	 -79.5922 	 -20.8504 	 -47.8022 	 
H 	 -78.6887 	 -22.9189 	 -50.33 	 
C 	 -80.6059 	 -20.6904 	 -50.2194 	 
H 	 -80.2983 	 -21.2177 	 -51.1136 	 
H 	 -80.3239 	 -19.6222 	 -50.3681 	 
C 	 -82.1388 	 -20.9437 	 -50.1275 	 
H 	 -82.5182 	 -20.4931 	 -51.0323 	 
H 	 -82.5106 	 -20.4687 	 -49.2265 	 
C 	 -82.4978 	 -22.3899 	 -50.0603 	 
H 	 -83.5996 	 -22.4797 	 -49.9981 	 
H 	 -82.0873 	 -22.8494 	 -49.1651 	 
H 	 -82.2517 	 -23.0323 	 -50.8998 	 
H 	 -81.5315 	 -17.8479 	 -44.3931 	 
H 	 -77.5502 	 -23.8438 	 -48.3853 	 
