34

S 	 -64.0453 	 13.4422 	 -108.01 	 
C 	 -64.7806 	 13.6113 	 -106.38 	 
C 	 -64.0995 	 14.4823 	 -105.566 	 
C 	 -63.0843 	 15.1939 	 -106.286 	 
C 	 -62.9597 	 14.7466 	 -107.583 	 
H 	 -62.4566 	 15.9871 	 -106.038 	 
C 	 -64.5696 	 14.8185 	 -104.204 	 
H 	 -65.5894 	 14.5147 	 -104.145 	 
H 	 -64.5408 	 15.9357 	 -104.026 	 
C 	 -63.6868 	 14.262 	 -103.04 	 
H 	 -63.4672 	 13.1915 	 -102.912 	 
H 	 -62.7012 	 14.6739 	 -103.108 	 
C 	 -64.2764 	 14.6549 	 -101.625 	 
H 	 -65.3977 	 14.661 	 -101.603 	 
H 	 -63.9295 	 13.9853 	 -100.785 	 
H 	 -64.0107 	 15.636 	 -101.306 	 
S 	 -62.082 	 17.0506 	 -108.856 	 
C 	 -61.0344 	 16.8855 	 -110.254 	 
C 	 -60.722 	 15.5395 	 -110.508 	 
C 	 -61.1182 	 14.6667 	 -109.424 	 
C 	 -62.0159 	 15.3015 	 -108.541 	 
H 	 -60.1866 	 15.1852 	 -111.372 	 
C 	 -60.7604 	 13.1921 	 -109.378 	 
H 	 -60.6447 	 12.8122 	 -110.429 	 
H 	 -61.6001 	 12.6869 	 -108.799 	 
C 	 -59.3956 	 12.7948 	 -108.731 	 
H 	 -58.7179 	 13.472 	 -109.142 	 
H 	 -59.1072 	 11.8394 	 -109.103 	 
C 	 -59.3321 	 12.9137 	 -107.229 	 
H 	 -59.8956 	 12.1113 	 -106.774 	 
H 	 -59.7845 	 13.8785 	 -106.95 	 
H 	 -58.2888 	 12.8475 	 -106.861 	 
H 	 -65.6354 	 13.107 	 -105.966 	 
H 	 -60.7965 	 17.6813 	 -110.936 	 
