34

S 	 -39.1946 	 -44.8212 	 -76.8159 	 
C 	 -39.9432 	 -43.2704 	 -77.0948 	 
C 	 -39.1135 	 -42.2523 	 -77.4692 	 
C 	 -37.7818 	 -42.7009 	 -77.5096 	 
C 	 -37.6026 	 -44.0476 	 -77.3396 	 
H 	 -36.8946 	 -42.1463 	 -77.7975 	 
C 	 -39.6049 	 -40.844 	 -77.6317 	 
H 	 -40.5687 	 -40.9282 	 -78.1352 	 
H 	 -38.9267 	 -40.2833 	 -78.3427 	 
C 	 -39.7404 	 -40.0363 	 -76.2808 	 
H 	 -40.203 	 -40.7005 	 -75.4869 	 
H 	 -38.826 	 -39.6828 	 -75.8891 	 
C 	 -40.5862 	 -38.7464 	 -76.398 	 
H 	 -41.7045 	 -38.9219 	 -76.541 	 
H 	 -40.5395 	 -38.2443 	 -75.4592 	 
H 	 -40.0934 	 -38.134 	 -77.1707 	 
S 	 -35.9346 	 -45.7017 	 -78.8543 	 
C 	 -34.3186 	 -46.1525 	 -78.1845 	 
C 	 -34.1842 	 -45.5618 	 -76.95 	 
C 	 -35.3219 	 -44.8084 	 -76.4983 	 
C 	 -36.3508 	 -44.7892 	 -77.4029 	 
H 	 -33.3463 	 -45.7519 	 -76.3535 	 
C 	 -35.3769 	 -44.0419 	 -75.1722 	 
H 	 -35.1878 	 -44.8827 	 -74.5297 	 
H 	 -36.4099 	 -43.8221 	 -74.8428 	 
C 	 -34.4243 	 -42.8082 	 -75.1013 	 
H 	 -34.7712 	 -42.1192 	 -75.8107 	 
H 	 -33.3965 	 -43.0574 	 -75.493 	 
C 	 -34.3851 	 -42.1805 	 -73.7267 	 
H 	 -33.9526 	 -42.8622 	 -73.0364 	 
H 	 -35.2879 	 -41.7295 	 -73.2826 	 
H 	 -33.6632 	 -41.3416 	 -73.8425 	 
H 	 -40.9465 	 -42.9711 	 -76.7822 	 
H 	 -33.5348 	 -46.6261 	 -78.719 	 
