34

S 	 -50.0569 	 28.8841 	 25.9753 	 
C 	 -49.9988 	 30.3542 	 24.9288 	 
C 	 -48.6961 	 30.8339 	 24.8598 	 
C 	 -47.7366 	 30.0265 	 25.5455 	 
C 	 -48.3564 	 28.9693 	 26.23 	 
H 	 -46.65 	 30.2064 	 25.6859 	 
C 	 -48.3004 	 32.0397 	 24.0961 	 
H 	 -48.2868 	 32.9083 	 24.6812 	 
H 	 -49.1738 	 32.3064 	 23.3934 	 
C 	 -47.118 	 31.7485 	 23.1811 	 
H 	 -46.3002 	 31.333 	 23.7231 	 
H 	 -47.4412 	 30.9781 	 22.4523 	 
C 	 -46.6772 	 32.9599 	 22.3384 	 
H 	 -45.7917 	 32.5858 	 21.725 	 
H 	 -47.3732 	 33.3948 	 21.7277 	 
H 	 -46.2117 	 33.7117 	 22.9656 	 
S 	 -47.1365 	 26.5457 	 26.9041 	 
C 	 -46.4481 	 26.3647 	 28.5354 	 
C 	 -46.6815 	 27.4426 	 29.2864 	 
C 	 -47.2734 	 28.5244 	 28.5726 	 
C 	 -47.5435 	 28.2361 	 27.2516 	 
H 	 -46.3498 	 27.4297 	 30.2981 	 
C 	 -47.8018 	 29.7853 	 29.2652 	 
H 	 -47.4877 	 30.7029 	 28.8222 	 
H 	 -47.5246 	 29.8703 	 30.3155 	 
C 	 -49.3371 	 29.9097 	 29.3978 	 
H 	 -49.747 	 28.9908 	 29.5041 	 
H 	 -49.7547 	 30.4794 	 28.5067 	 
C 	 -49.7917 	 30.8279 	 30.5756 	 
H 	 -49.7275 	 30.2332 	 31.4601 	 
H 	 -50.8185 	 31.1782 	 30.4055 	 
H 	 -49.148 	 31.6371 	 30.73 	 
H 	 -50.8636 	 30.8699 	 24.4679 	 
H 	 -45.8886 	 25.478 	 28.8386 	 
