34

S 	 -116.633 	 57.2698 	 -77.9969 	 
C 	 -117.767 	 57.3897 	 -79.268 	 
C 	 -117.177 	 57.3635 	 -80.5122 	 
C 	 -115.74 	 57.2218 	 -80.3676 	 
C 	 -115.296 	 57.3409 	 -79.0805 	 
H 	 -115.022 	 57.1586 	 -81.1614 	 
C 	 -117.864 	 57.4525 	 -81.7977 	 
H 	 -117.927 	 56.4282 	 -82.1464 	 
H 	 -117.091 	 57.8841 	 -82.5365 	 
C 	 -119.178 	 58.1153 	 -81.8322 	 
H 	 -119.697 	 57.894 	 -82.7672 	 
H 	 -119.748 	 57.6052 	 -81.0813 	 
C 	 -119.23 	 59.6221 	 -81.6842 	 
H 	 -120.28 	 60.0332 	 -81.6693 	 
H 	 -118.809 	 60.007 	 -80.7892 	 
H 	 -118.802 	 60.1231 	 -82.5779 	 
S 	 -113.349 	 55.5647 	 -78.5221 	 
C 	 -111.793 	 56.1067 	 -77.9517 	 
C 	 -111.706 	 57.4975 	 -77.8463 	 
C 	 -112.936 	 58.1622 	 -78.1965 	 
C 	 -113.951 	 57.2116 	 -78.5393 	 
H 	 -110.833 	 58.0009 	 -77.6099 	 
C 	 -113.03 	 59.6748 	 -78.3357 	 
H 	 -112.585 	 60.1335 	 -77.4838 	 
H 	 -114.044 	 59.9515 	 -78.3744 	 
C 	 -112.439 	 60.2768 	 -79.6257 	 
H 	 -113.174 	 60.16 	 -80.3965 	 
H 	 -111.62 	 59.7858 	 -79.9874 	 
C 	 -111.911 	 61.6352 	 -79.5672 	 
H 	 -112.667 	 62.4335 	 -79.5378 	 
H 	 -111.359 	 61.9375 	 -80.4883 	 
H 	 -111.169 	 61.6973 	 -78.7073 	 
H 	 -118.823 	 57.6457 	 -79.107 	 
H 	 -110.927 	 55.414 	 -77.5922 	 
