34

S 	 35.4303 	 -31.2807 	 -129.684 	 
C 	 37.165 	 -31.0227 	 -129.609 	 
C 	 37.9081 	 -32.1983 	 -129.655 	 
C 	 36.9819 	 -33.2982 	 -129.675 	 
C 	 35.6413 	 -33.0093 	 -129.731 	 
H 	 37.1577 	 -34.4086 	 -129.595 	 
C 	 39.3859 	 -32.2763 	 -129.417 	 
H 	 39.6183 	 -33.033 	 -128.628 	 
H 	 39.7827 	 -31.407 	 -128.889 	 
C 	 40.2467 	 -32.5606 	 -130.657 	 
H 	 41.2305 	 -33.0713 	 -130.419 	 
H 	 39.7573 	 -33.3349 	 -131.26 	 
C 	 40.3918 	 -31.1977 	 -131.408 	 
H 	 41.1264 	 -31.2577 	 -132.126 	 
H 	 39.5015 	 -30.89 	 -131.846 	 
H 	 40.7519 	 -30.3071 	 -130.803 	 
S 	 33.8004 	 -34.3461 	 -131.232 	 
C 	 32.653 	 -35.3744 	 -130.477 	 
C 	 32.9029 	 -35.5114 	 -129.101 	 
C 	 33.9737 	 -34.6569 	 -128.679 	 
C 	 34.5856 	 -34.01 	 -129.736 	 
H 	 32.3069 	 -36.1312 	 -128.473 	 
C 	 34.4177 	 -34.5464 	 -127.258 	 
H 	 35.4785 	 -34.3492 	 -127.038 	 
H 	 34.372 	 -35.5477 	 -126.989 	 
C 	 33.4702 	 -33.8311 	 -126.302 	 
H 	 32.4537 	 -34.1679 	 -126.508 	 
H 	 33.4273 	 -32.7432 	 -126.512 	 
C 	 33.7874 	 -34.0052 	 -124.826 	 
H 	 33.0935 	 -33.4286 	 -124.165 	 
H 	 34.8586 	 -33.7474 	 -124.693 	 
H 	 33.6741 	 -35.0069 	 -124.469 	 
H 	 37.6852 	 -30.1045 	 -129.564 	 
H 	 31.8942 	 -35.877 	 -131.118 	 
