34

S 	 -127.201 	 62.8879 	 -54.371 	 
C 	 -125.911 	 63.9064 	 -53.8019 	 
C 	 -126.113 	 64.3062 	 -52.4795 	 
C 	 -127.334 	 63.8875 	 -51.9366 	 
C 	 -128.008 	 63.045 	 -52.7798 	 
H 	 -127.716 	 63.9522 	 -50.9415 	 
C 	 -124.992 	 64.9313 	 -51.6561 	 
H 	 -124.2 	 65.2751 	 -52.3781 	 
H 	 -124.648 	 64.1587 	 -51.028 	 
C 	 -125.353 	 66.155 	 -50.8684 	 
H 	 -125.808 	 65.8409 	 -49.9479 	 
H 	 -124.413 	 66.6319 	 -50.6051 	 
C 	 -126.185 	 67.1586 	 -51.674 	 
H 	 -126.372 	 68.1152 	 -51.2134 	 
H 	 -125.626 	 67.3959 	 -52.5632 	 
H 	 -127.149 	 66.926 	 -52.0408 	 
S 	 -130.494 	 62.3686 	 -53.7873 	 
C 	 -131.717 	 61.686 	 -52.7796 	 
C 	 -131.11 	 61.258 	 -51.6246 	 
C 	 -129.707 	 61.6131 	 -51.4211 	 
C 	 -129.289 	 62.4289 	 -52.5265 	 
H 	 -131.722 	 60.8509 	 -50.8542 	 
C 	 -128.989 	 61.3863 	 -50.1217 	 
H 	 -127.969 	 61.676 	 -50.3289 	 
H 	 -128.936 	 60.3172 	 -49.8559 	 
C 	 -129.44 	 62.2388 	 -48.9588 	 
H 	 -130.44 	 61.9551 	 -48.8048 	 
H 	 -129.468 	 63.2565 	 -49.2585 	 
C 	 -128.455 	 61.8653 	 -47.8497 	 
H 	 -127.415 	 62.2321 	 -48.1342 	 
H 	 -128.362 	 60.7729 	 -47.5493 	 
H 	 -128.751 	 62.3936 	 -46.917 	 
H 	 -125.146 	 64.1901 	 -54.5491 	 
H 	 -132.737 	 61.4871 	 -53.0254 	 
