34

S 	 -107.972 	 46.0654 	 -7.01977 	 
C 	 -109.332 	 46.5009 	 -5.99157 	 
C 	 -110.519 	 46.3537 	 -6.71543 	 
C 	 -110.362 	 45.9408 	 -8.11776 	 
C 	 -109.005 	 45.8835 	 -8.51819 	 
H 	 -111.145 	 45.9711 	 -8.83983 	 
C 	 -111.777 	 46.5482 	 -6.00073 	 
H 	 -111.59 	 46.0609 	 -5.05968 	 
H 	 -112.65 	 46.0845 	 -6.47771 	 
C 	 -112.064 	 48.0121 	 -5.57553 	 
H 	 -113.005 	 48.0565 	 -5.03023 	 
H 	 -111.346 	 48.5404 	 -4.96708 	 
C 	 -112.219 	 48.902 	 -6.8285 	 
H 	 -111.207 	 48.8343 	 -7.35275 	 
H 	 -113.025 	 48.4812 	 -7.42688 	 
H 	 -112.388 	 49.9483 	 -6.63643 	 
S 	 -107.95 	 43.8679 	 -9.92012 	 
C 	 -107.088 	 44.0603 	 -11.4398 	 
C 	 -107.252 	 45.405 	 -11.84 	 
C 	 -107.91 	 46.2768 	 -10.8957 	 
C 	 -108.415 	 45.5392 	 -9.79101 	 
H 	 -106.859 	 45.795 	 -12.7868 	 
C 	 -107.917 	 47.7494 	 -10.9981 	 
H 	 -107.091 	 47.9916 	 -11.743 	 
H 	 -107.587 	 48.1012 	 -10.0192 	 
C 	 -109.269 	 48.3229 	 -11.3833 	 
H 	 -109.082 	 49.3625 	 -11.5273 	 
H 	 -109.943 	 48.2537 	 -10.5718 	 
C 	 -109.87 	 47.6287 	 -12.6396 	 
H 	 -110.799 	 48.2192 	 -12.9088 	 
H 	 -110.171 	 46.6371 	 -12.4999 	 
H 	 -109.133 	 47.6119 	 -13.4111 	 
H 	 -109.226 	 46.9465 	 -4.98152 	 
H 	 -106.629 	 43.2234 	 -12.0312 	 
