34

S 	 35.4282 	 -31.7725 	 -129.923 	 
C 	 36.8268 	 -30.679 	 -130.139 	 
C 	 38.0059 	 -31.3544 	 -130.582 	 
C 	 37.741 	 -32.6308 	 -131.051 	 
C 	 36.4272 	 -33.0286 	 -130.753 	 
H 	 38.5018 	 -33.1532 	 -131.645 	 
C 	 39.3633 	 -30.7182 	 -130.74 	 
H 	 39.2983 	 -29.571 	 -130.924 	 
H 	 39.7846 	 -31.1609 	 -131.646 	 
C 	 40.2705 	 -30.8763 	 -129.505 	 
H 	 40.9977 	 -30.0596 	 -129.511 	 
H 	 39.6161 	 -30.6746 	 -128.642 	 
C 	 40.8916 	 -32.3158 	 -129.393 	 
H 	 40.0957 	 -33.0305 	 -129.088 	 
H 	 41.4374 	 -32.7737 	 -130.242 	 
H 	 41.5669 	 -32.2685 	 -128.537 	 
S 	 34.8156 	 -33.9842 	 -132.698 	 
C 	 34.5562 	 -35.6766 	 -132.834 	 
C 	 35.2766 	 -36.4138 	 -131.938 	 
C 	 35.9197 	 -35.5689 	 -130.939 	 
C 	 35.7274 	 -34.2187 	 -131.231 	 
H 	 35.1805 	 -37.5091 	 -132.01 	 
C 	 36.7548 	 -36.1529 	 -129.805 	 
H 	 36.134 	 -36.5984 	 -129.05 	 
H 	 37.1864 	 -35.3129 	 -129.253 	 
C 	 37.7959 	 -37.2827 	 -130.141 	 
H 	 38.2996 	 -37.0066 	 -131.043 	 
H 	 37.1802 	 -38.178 	 -130.359 	 
C 	 38.841 	 -37.4771 	 -128.987 	 
H 	 39.6351 	 -38.0788 	 -129.449 	 
H 	 38.3981 	 -38.07 	 -128.211 	 
H 	 39.1698 	 -36.5169 	 -128.587 	 
H 	 36.8776 	 -29.6254 	 -129.865 	 
H 	 33.7445 	 -36.1384 	 -133.368 	 
