34

S 	 -108.971 	 29.7477 	 -18.3329 	 
C 	 -108.986 	 28.6243 	 -19.6507 	 
C 	 -108.611 	 29.2226 	 -20.8066 	 
C 	 -108.509 	 30.6391 	 -20.7214 	 
C 	 -108.85 	 31.2056 	 -19.4702 	 
H 	 -108.304 	 31.2024 	 -21.5232 	 
C 	 -108.314 	 28.4062 	 -22.0789 	 
H 	 -108.47 	 28.8754 	 -22.9639 	 
H 	 -108.865 	 27.4515 	 -21.9998 	 
C 	 -106.8 	 27.9984 	 -22.0373 	 
H 	 -106.152 	 28.8251 	 -21.8741 	 
H 	 -106.515 	 27.2547 	 -21.312 	 
C 	 -106.375 	 27.3485 	 -23.3931 	 
H 	 -106.292 	 28.1619 	 -24.1404 	 
H 	 -105.389 	 26.8977 	 -23.3932 	 
H 	 -107.133 	 26.588 	 -23.6187 	 
S 	 -107.322 	 33.4738 	 -19.0581 	 
C 	 -107.981 	 34.731 	 -18.0326 	 
C 	 -109.33 	 34.5733 	 -17.7645 	 
C 	 -109.797 	 33.3765 	 -18.327 	 
C 	 -108.832 	 32.6097 	 -19.042 	 
H 	 -109.853 	 35.3426 	 -17.2219 	 
C 	 -111.237 	 32.9583 	 -18.1334 	 
H 	 -111.497 	 32.2681 	 -18.91 	 
H 	 -111.934 	 33.7483 	 -18.2385 	 
C 	 -111.53 	 32.4381 	 -16.7341 	 
H 	 -110.982 	 32.9686 	 -16.0091 	 
H 	 -111.156 	 31.4119 	 -16.5873 	 
C 	 -113.004 	 32.297 	 -16.3194 	 
H 	 -113.535 	 33.2604 	 -16.0706 	 
H 	 -113.108 	 31.666 	 -15.4429 	 
H 	 -113.615 	 31.8356 	 -17.0284 	 
H 	 -108.987 	 27.5639 	 -19.4423 	 
H 	 -107.429 	 35.5971 	 -17.5914 	 
