34

S 	 -106.354 	 60.0938 	 -92.3364 	 
C 	 -104.917 	 61.1512 	 -92.328 	 
C 	 -103.785 	 60.4792 	 -92.8037 	 
C 	 -104.146 	 59.2026 	 -93.3679 	 
C 	 -105.478 	 58.9351 	 -93.2228 	 
H 	 -103.507 	 58.4831 	 -93.862 	 
C 	 -102.371 	 60.885 	 -92.7191 	 
H 	 -102.029 	 60.9276 	 -93.7306 	 
H 	 -101.837 	 60.0307 	 -92.2339 	 
C 	 -101.917 	 62.1632 	 -91.9958 	 
H 	 -102.383 	 63.0972 	 -92.3863 	 
H 	 -102.3 	 62.0954 	 -90.963 	 
C 	 -100.389 	 62.3876 	 -91.9148 	 
H 	 -99.8816 	 61.4946 	 -91.5201 	 
H 	 -99.9804 	 62.8422 	 -92.8149 	 
H 	 -100.233 	 63.083 	 -91.0905 	 
S 	 -106.874 	 56.5224 	 -92.9086 	 
C 	 -107.421 	 55.7327 	 -94.3583 	 
C 	 -107.275 	 56.4731 	 -95.4802 	 
C 	 -106.514 	 57.6578 	 -95.306 	 
C 	 -106.288 	 57.9243 	 -93.9147 	 
H 	 -107.67 	 56.0559 	 -96.3872 	 
C 	 -106.185 	 58.5673 	 -96.4662 	 
H 	 -105.413 	 59.2535 	 -96.1974 	 
H 	 -107.141 	 59.1554 	 -96.5666 	 
C 	 -105.845 	 57.8998 	 -97.8573 	 
H 	 -106.816 	 57.4928 	 -98.222 	 
H 	 -105.103 	 57.122 	 -97.7141 	 
C 	 -105.384 	 59.0135 	 -98.805 	 
H 	 -106.122 	 59.8309 	 -98.7308 	 
H 	 -105.447 	 58.6017 	 -99.881 	 
H 	 -104.287 	 59.4188 	 -98.6619 	 
H 	 -104.834 	 62.1701 	 -91.9155 	 
H 	 -107.862 	 54.7316 	 -94.3642 	 
