34

S 	 -35.7337 	 4.41257 	 5.21749 	 
C 	 -35.5387 	 3.14578 	 4.13385 	 
C 	 -34.2733 	 2.5781 	 4.19884 	 
C 	 -33.4717 	 3.24629 	 5.16533 	 
C 	 -34.1037 	 4.28547 	 5.7746 	 
H 	 -32.4442 	 2.94189 	 5.45765 	 
C 	 -33.7763 	 1.3802 	 3.45826 	 
H 	 -34.4845 	 0.620664 	 3.60148 	 
H 	 -32.8336 	 1.14046 	 3.95235 	 
C 	 -33.4947 	 1.53437 	 1.95559 	 
H 	 -34.3037 	 2.06344 	 1.42983 	 
H 	 -32.5472 	 2.16846 	 1.83087 	 
C 	 -33.25 	 0.190399 	 1.23759 	 
H 	 -32.3255 	 -0.247773 	 1.59747 	 
H 	 -34.0808 	 -0.532604 	 1.16747 	 
H 	 -32.9803 	 0.392123 	 0.193081 	 
S 	 -32.132 	 6.11861 	 6.23014 	 
C 	 -31.8663 	 6.79518 	 7.85853 	 
C 	 -32.9336 	 6.41272 	 8.66809 	 
C 	 -33.9117 	 5.58642 	 8.02057 	 
C 	 -33.5181 	 5.15735 	 6.76665 	 
H 	 -32.9883 	 6.72386 	 9.67296 	 
C 	 -35.1907 	 5.33446 	 8.74773 	 
H 	 -36.109 	 5.23336 	 8.07278 	 
H 	 -35.2925 	 6.29101 	 9.25712 	 
C 	 -35.1674 	 4.11631 	 9.66108 	 
H 	 -36.0443 	 4.22407 	 10.2273 	 
H 	 -34.3365 	 4.13709 	 10.2238 	 
C 	 -35.264 	 2.76464 	 9.01158 	 
H 	 -35.9333 	 2.80057 	 8.13477 	 
H 	 -35.5456 	 2.01056 	 9.69852 	 
H 	 -34.2468 	 2.39268 	 8.71557 	 
H 	 -36.2513 	 2.78096 	 3.36735 	 
H 	 -31.1269 	 7.51781 	 8.25571 	 
