34

S 	 -65.8394 	 -53.3988 	 -83.3239 	 
C 	 -64.1827 	 -53.8732 	 -83.6422 	 
C 	 -63.448 	 -53.9734 	 -82.4743 	 
C 	 -64.0677 	 -53.202 	 -81.3803 	 
C 	 -65.425 	 -52.9184 	 -81.6678 	 
H 	 -63.6367 	 -52.9879 	 -80.4611 	 
C 	 -62.0563 	 -54.5898 	 -82.3641 	 
H 	 -62.0604 	 -55.4155 	 -83.0709 	 
H 	 -61.9728 	 -54.9964 	 -81.3276 	 
C 	 -60.8665 	 -53.5523 	 -82.6627 	 
H 	 -59.8944 	 -54.1655 	 -82.5303 	 
H 	 -60.8288 	 -53.3977 	 -83.741 	 
C 	 -60.9138 	 -52.2489 	 -81.8372 	 
H 	 -61.7497 	 -51.5985 	 -82.1912 	 
H 	 -61.0579 	 -52.3025 	 -80.771 	 
H 	 -59.9735 	 -51.6926 	 -81.9488 	 
S 	 -66.5197 	 -50.4701 	 -81.155 	 
C 	 -67.6291 	 -50.2763 	 -79.8698 	 
C 	 -67.8982 	 -51.4734 	 -79.2543 	 
C 	 -67.1129 	 -52.5611 	 -79.7747 	 
C 	 -66.4013 	 -52.1833 	 -80.8864 	 
H 	 -68.5885 	 -51.4482 	 -78.4027 	 
C 	 -67.1682 	 -53.9129 	 -79.1348 	 
H 	 -67.2351 	 -54.7795 	 -79.755 	 
H 	 -68.0701 	 -53.9089 	 -78.6224 	 
C 	 -66.029 	 -54.2895 	 -78.1146 	 
H 	 -65.134 	 -54.1398 	 -78.7158 	 
H 	 -66.2066 	 -55.265 	 -77.6703 	 
C 	 -65.8872 	 -53.2409 	 -76.9451 	 
H 	 -64.9583 	 -53.5073 	 -76.4188 	 
H 	 -66.8598 	 -53.1405 	 -76.3753 	 
H 	 -65.6437 	 -52.2837 	 -77.3601 	 
H 	 -63.7747 	 -54.2559 	 -84.5941 	 
H 	 -68.3096 	 -49.4853 	 -79.557 	 
