34

S 	 -99.1714 	 7.55927 	 1.38979 	 
C 	 -99.7377 	 8.02334 	 -0.240833 	 
C 	 -98.648 	 8.06045 	 -1.08325 	 
C 	 -97.4108 	 7.93439 	 -0.397479 	 
C 	 -97.4761 	 7.97739 	 1.02813 	 
H 	 -96.502 	 7.94583 	 -0.869918 	 
C 	 -98.7473 	 8.10727 	 -2.58774 	 
H 	 -99.3202 	 7.17432 	 -2.83521 	 
H 	 -97.7798 	 8.07017 	 -2.99834 	 
C 	 -99.3467 	 9.42868 	 -3.08784 	 
H 	 -100.234 	 9.73244 	 -2.59236 	 
H 	 -98.6453 	 10.2149 	 -2.88243 	 
C 	 -99.5281 	 9.72213 	 -4.62319 	 
H 	 -98.6164 	 9.92939 	 -5.18688 	 
H 	 -100.083 	 8.89208 	 -5.00979 	 
H 	 -100.179 	 10.6471 	 -4.84152 	 
S 	 -96.5439 	 6.52458 	 3.25058 	 
C 	 -94.8771 	 6.78839 	 3.75779 	 
C 	 -94.3163 	 7.84816 	 3.07683 	 
C 	 -95.1643 	 8.44401 	 2.07419 	 
C 	 -96.4371 	 7.84305 	 1.97503 	 
H 	 -93.3965 	 8.13395 	 3.41817 	 
C 	 -94.7739 	 9.66287 	 1.30082 	 
H 	 -95.5776 	 9.87464 	 0.616301 	 
H 	 -94.0093 	 9.42821 	 0.554275 	 
C 	 -94.2684 	 10.9013 	 2.09713 	 
H 	 -94.0105 	 11.6927 	 1.33199 	 
H 	 -93.3831 	 10.6434 	 2.71294 	 
C 	 -95.4136 	 11.4243 	 2.98733 	 
H 	 -95.0764 	 12.1411 	 3.69374 	 
H 	 -95.9305 	 10.6985 	 3.64478 	 
H 	 -96.136 	 12.0187 	 2.41823 	 
H 	 -100.771 	 7.98405 	 -0.57196 	 
H 	 -94.4222 	 6.3867 	 4.64484 	 
