34

S 	 44.3745 	 -15.9017 	 -127.725 	 
C 	 44.3874 	 -14.1119 	 -127.537 	 
C 	 43.4548 	 -13.6314 	 -126.634 	 
C 	 42.8406 	 -14.7325 	 -125.964 	 
C 	 43.2379 	 -16.0191 	 -126.374 	 
H 	 42.3547 	 -14.5709 	 -125.045 	 
C 	 43.2814 	 -12.1987 	 -126.217 	 
H 	 44.2347 	 -11.6747 	 -126.276 	 
H 	 42.965 	 -12.1776 	 -125.209 	 
C 	 42.3331 	 -11.2505 	 -127.061 	 
H 	 41.3294 	 -11.7008 	 -127.163 	 
H 	 42.2598 	 -10.3447 	 -126.552 	 
C 	 42.7415 	 -10.7255 	 -128.388 	 
H 	 42.0802 	 -9.98186 	 -128.806 	 
H 	 43.739 	 -10.2862 	 -128.362 	 
H 	 42.7333 	 -11.4897 	 -129.049 	 
S 	 44.4374 	 -18.3077 	 -125.517 	 
C 	 43.6372 	 -19.3735 	 -124.398 	 
C 	 42.3197 	 -18.9705 	 -124.172 	 
C 	 41.9936 	 -17.747 	 -124.856 	 
C 	 43.0489 	 -17.2766 	 -125.634 	 
H 	 41.7202 	 -19.642 	 -123.493 	 
C 	 40.6607 	 -17.0844 	 -124.675 	 
H 	 40.8388 	 -16.1227 	 -124.253 	 
H 	 40.1121 	 -17.5772 	 -123.932 	 
C 	 39.8476 	 -16.8598 	 -125.984 	 
H 	 40.3207 	 -16.0202 	 -126.416 	 
H 	 38.9677 	 -16.3382 	 -125.72 	 
C 	 39.6236 	 -18.1099 	 -126.786 	 
H 	 38.8937 	 -17.9677 	 -127.545 	 
H 	 39.1746 	 -18.9497 	 -126.291 	 
H 	 40.5396 	 -18.3936 	 -127.202 	 
H 	 45.1212 	 -13.3957 	 -128.043 	 
H 	 43.9489 	 -20.3463 	 -124.065 	 
