34

S 	 -104.371 	 67.3074 	 -7.32756 	 
C 	 -104.552 	 68.3223 	 -8.73533 	 
C 	 -104.757 	 67.5125 	 -9.80018 	 
C 	 -104.844 	 66.0932 	 -9.54525 	 
C 	 -104.526 	 65.7744 	 -8.24663 	 
H 	 -105.165 	 65.3765 	 -10.2515 	 
C 	 -104.999 	 67.9805 	 -11.2224 	 
H 	 -105.488 	 68.9556 	 -11.1637 	 
H 	 -105.721 	 67.3105 	 -11.6483 	 
C 	 -103.811 	 68.0555 	 -12.1874 	 
H 	 -103.009 	 68.6118 	 -11.6789 	 
H 	 -103.53 	 66.9847 	 -12.3382 	 
C 	 -104.005 	 68.6171 	 -13.6211 	 
H 	 -104.139 	 69.6664 	 -13.538 	 
H 	 -103.154 	 68.3439 	 -14.2266 	 
H 	 -104.978 	 68.1202 	 -13.9641 	 
S 	 -104.788 	 63.0785 	 -8.6437 	 
C 	 -103.973 	 61.9532 	 -7.6208 	 
C 	 -103.572 	 62.5841 	 -6.46655 	 
C 	 -103.764 	 63.9885 	 -6.48531 	 
C 	 -104.302 	 64.4349 	 -7.68363 	 
H 	 -103.167 	 61.9655 	 -5.76567 	 
C 	 -103.348 	 64.8182 	 -5.29329 	 
H 	 -103.8 	 65.791 	 -5.44158 	 
H 	 -102.264 	 64.9303 	 -5.50525 	 
C 	 -103.641 	 64.4075 	 -3.85102 	 
H 	 -103.46 	 65.1076 	 -3.0809 	 
H 	 -103.026 	 63.4555 	 -3.66748 	 
C 	 -105.114 	 63.975 	 -3.70937 	 
H 	 -105.359 	 63.0283 	 -4.30709 	 
H 	 -105.933 	 64.6854 	 -3.95329 	 
H 	 -105.286 	 63.685 	 -2.67009 	 
H 	 -104.545 	 69.3871 	 -8.71586 	 
H 	 -103.853 	 60.8736 	 -7.93641 	 
