34

S 	 -51.2829 	 7.18318 	 -18.0586 	 
C 	 -49.6625 	 6.8154 	 -18.5831 	 
C 	 -48.7756 	 7.86784 	 -18.3111 	 
C 	 -49.3923 	 8.95799 	 -17.6166 	 
C 	 -50.7593 	 8.82817 	 -17.5209 	 
H 	 -48.8781 	 9.82206 	 -17.2376 	 
C 	 -47.2935 	 7.78524 	 -18.372 	 
H 	 -46.8148 	 8.62961 	 -18.8409 	 
H 	 -46.9581 	 6.98886 	 -19.1164 	 
C 	 -46.6376 	 7.52801 	 -16.9736 	 
H 	 -46.3108 	 8.52699 	 -16.6278 	 
H 	 -47.4247 	 7.10014 	 -16.3602 	 
C 	 -45.5122 	 6.45509 	 -16.8608 	 
H 	 -45.7385 	 5.44934 	 -17.1369 	 
H 	 -44.6736 	 6.61527 	 -17.6067 	 
H 	 -45.1401 	 6.38483 	 -15.8252 	 
S 	 -52.4452 	 10.7271 	 -18.3282 	 
C 	 -53.5833 	 11.5618 	 -17.2726 	 
C 	 -53.2094 	 11.3341 	 -15.9457 	 
C 	 -52.2496 	 10.2316 	 -15.7752 	 
C 	 -51.771 	 9.78933 	 -17.0114 	 
H 	 -53.6723 	 11.8268 	 -15.1468 	 
C 	 -51.9397 	 9.47373 	 -14.4502 	 
H 	 -51.7357 	 8.43824 	 -14.7897 	 
H 	 -52.8791 	 9.44647 	 -13.9204 	 
C 	 -50.7005 	 9.8055 	 -13.5756 	 
H 	 -50.7951 	 10.8875 	 -13.3588 	 
H 	 -49.8442 	 9.61908 	 -14.2695 	 
C 	 -50.6866 	 8.94498 	 -12.2877 	 
H 	 -51.5407 	 9.15543 	 -11.7627 	 
H 	 -49.7428 	 9.0556 	 -11.7286 	 
H 	 -50.7733 	 7.92267 	 -12.5847 	 
H 	 -49.375 	 5.76724 	 -18.8555 	 
H 	 -54.4161 	 12.1008 	 -17.6838 	 
