34

S 	 -57.97 	 14.62 	 -84.8989 	 
C 	 -58.9963 	 14.9781 	 -86.2608 	 
C 	 -58.9529 	 16.3569 	 -86.53 	 
C 	 -58.1241 	 17.041 	 -85.6235 	 
C 	 -57.3496 	 16.2695 	 -84.6881 	 
H 	 -58.0512 	 18.136 	 -85.5468 	 
C 	 -59.7355 	 17.1086 	 -87.6689 	 
H 	 -60.2159 	 17.9847 	 -87.2866 	 
H 	 -60.4257 	 16.3418 	 -88.0639 	 
C 	 -58.916 	 17.6255 	 -88.8606 	 
H 	 -58.4124 	 16.6767 	 -89.3033 	 
H 	 -59.551 	 17.8868 	 -89.7239 	 
C 	 -57.845 	 18.7356 	 -88.5888 	 
H 	 -58.0681 	 19.5329 	 -87.8317 	 
H 	 -56.8768 	 18.3711 	 -88.3175 	 
H 	 -57.7747 	 19.2415 	 -89.5716 	 
S 	 -56.6541 	 16.0365 	 -82.0735 	 
C 	 -55.7472 	 17.2257 	 -81.1804 	 
C 	 -55.1637 	 18.0035 	 -82.1695 	 
C 	 -55.583 	 17.8178 	 -83.5204 	 
C 	 -56.4529 	 16.7491 	 -83.6002 	 
H 	 -54.4948 	 18.7693 	 -81.9552 	 
C 	 -54.9634 	 18.6133 	 -84.6663 	 
H 	 -54.4217 	 19.5206 	 -84.1921 	 
H 	 -55.78 	 18.9126 	 -85.3069 	 
C 	 -53.9507 	 17.8779 	 -85.4504 	 
H 	 -54.4091 	 16.9923 	 -85.7668 	 
H 	 -53.1501 	 17.4897 	 -84.8724 	 
C 	 -53.4577 	 18.6937 	 -86.6135 	 
H 	 -53.4897 	 19.8023 	 -86.4083 	 
H 	 -54.2195 	 18.6514 	 -87.3589 	 
H 	 -52.43 	 18.3923 	 -86.9483 	 
H 	 -59.575 	 14.2485 	 -86.7553 	 
H 	 -55.6112 	 17.3439 	 -80.1008 	 
