34

S 	 -108.554 	 51.2124 	 -69.5075 	 
C 	 -109.018 	 50.3366 	 -70.9031 	 
C 	 -107.858 	 49.8562 	 -71.5281 	 
C 	 -106.66 	 50.2204 	 -70.8395 	 
C 	 -106.848 	 50.9251 	 -69.6883 	 
H 	 -105.73 	 49.8853 	 -71.105 	 
C 	 -107.904 	 49.1056 	 -72.854 	 
H 	 -108.407 	 49.7445 	 -73.5868 	 
H 	 -108.45 	 48.1738 	 -72.7163 	 
C 	 -106.529 	 48.6914 	 -73.4072 	 
H 	 -105.849 	 49.5558 	 -73.5892 	 
H 	 -105.973 	 48.1833 	 -72.5535 	 
C 	 -106.662 	 47.9858 	 -74.7636 	 
H 	 -107.227 	 48.6085 	 -75.3956 	 
H 	 -105.708 	 47.6095 	 -75.2067 	 
H 	 -107.318 	 47.0942 	 -74.6684 	 
S 	 -104.799 	 50.4755 	 -67.9953 	 
C 	 -103.867 	 51.8995 	 -67.4699 	 
C 	 -104.332 	 53.085 	 -67.9235 	 
C 	 -105.449 	 52.9306 	 -68.7929 	 
C 	 -105.806 	 51.5628 	 -68.9288 	 
H 	 -103.858 	 53.9577 	 -67.629 	 
C 	 -106.082 	 54.134 	 -69.4286 	 
H 	 -105.79 	 55.0156 	 -68.721 	 
H 	 -107.146 	 53.8962 	 -69.2627 	 
C 	 -105.631 	 54.3212 	 -70.8591 	 
H 	 -105.84 	 53.4286 	 -71.493 	 
H 	 -104.585 	 54.4589 	 -70.8958 	 
C 	 -106.256 	 55.6109 	 -71.5246 	 
H 	 -107.355 	 55.5677 	 -71.2636 	 
H 	 -106.178 	 55.4446 	 -72.5955 	 
H 	 -105.658 	 56.5106 	 -71.4152 	 
H 	 -110.004 	 50.1264 	 -71.3054 	 
H 	 -102.992 	 51.7072 	 -66.764 	 
