34

S 	 -94.415 	 4.09056 	 -4.06137 	 
C 	 -93.0048 	 3.193 	 -4.54368 	 
C 	 -92.0195 	 3.09533 	 -3.55151 	 
C 	 -92.5887 	 3.51591 	 -2.34448 	 
C 	 -93.9091 	 3.8979 	 -2.35336 	 
H 	 -92.0673 	 3.57129 	 -1.42998 	 
C 	 -90.601 	 2.6801 	 -3.84416 	 
H 	 -90.0552 	 3.57549 	 -4.10956 	 
H 	 -90.5654 	 2.04786 	 -4.72296 	 
C 	 -89.9416 	 1.93668 	 -2.68 	 
H 	 -89.979 	 2.70706 	 -1.88674 	 
H 	 -90.3971 	 1.03836 	 -2.37966 	 
C 	 -88.4648 	 1.58619 	 -3.03126 	 
H 	 -87.809 	 2.46391 	 -2.94057 	 
H 	 -87.9903 	 0.849727 	 -2.46893 	 
H 	 -88.2695 	 1.33799 	 -4.1204 	 
S 	 -95.7049 	 5.76288 	 -1.23324 	 
C 	 -96.3336 	 5.47635 	 0.416345 	 
C 	 -95.6898 	 4.38377 	 0.900603 	 
C 	 -94.7437 	 3.73335 	 0.04629 	 
C 	 -94.6643 	 4.34887 	 -1.20138 	 
H 	 -95.8458 	 3.9917 	 1.89716 	 
C 	 -94.1243 	 2.43336 	 0.560984 	 
H 	 -93.1355 	 2.70605 	 0.982778 	 
H 	 -93.9003 	 1.81806 	 -0.352152 	 
C 	 -94.841 	 1.53674 	 1.58752 	 
H 	 -95.08 	 2.01785 	 2.52782 	 
H 	 -94.0302 	 0.797067 	 1.87053 	 
C 	 -95.9741 	 0.749653 	 0.994207 	 
H 	 -96.9256 	 1.23517 	 0.914629 	 
H 	 -96.1053 	 -0.287444 	 1.43355 	 
H 	 -95.7439 	 0.505569 	 -0.108452 	 
H 	 -92.7909 	 2.98955 	 -5.58215 	 
H 	 -97.1145 	 6.06015 	 0.890138 	 
