34

S 	 -44.711 	 -5.90481 	 19.465 	 
C 	 -45.3076 	 -4.32681 	 19.1083 	 
C 	 -45.0049 	 -3.88736 	 17.8097 	 
C 	 -44.2965 	 -4.92449 	 17.0403 	 
C 	 -43.9796 	 -6.02143 	 17.8251 	 
H 	 -44.1327 	 -4.8307 	 15.9656 	 
C 	 -45.407 	 -2.55185 	 17.22 	 
H 	 -44.61 	 -2.15883 	 16.561 	 
H 	 -45.4474 	 -1.8438 	 18.0347 	 
C 	 -46.6035 	 -2.67628 	 16.2802 	 
H 	 -46.3345 	 -3.31758 	 15.4553 	 
H 	 -47.4706 	 -3.06831 	 16.8983 	 
C 	 -47.0718 	 -1.37055 	 15.5449 	 
H 	 -47.3288 	 -0.576709 	 16.2567 	 
H 	 -46.1494 	 -1.05944 	 14.9784 	 
H 	 -47.8537 	 -1.53058 	 14.8331 	 
S 	 -44.6217 	 -8.56345 	 16.9311 	 
C 	 -43.3809 	 -9.69173 	 16.4773 	 
C 	 -42.2007 	 -8.971 	 16.3578 	 
C 	 -42.195 	 -7.66219 	 16.8937 	 
C 	 -43.4848 	 -7.31004 	 17.3536 	 
H 	 -41.2629 	 -9.39438 	 15.8543 	 
C 	 -41.0103 	 -6.78451 	 16.8191 	 
H 	 -40.1496 	 -7.42077 	 16.663 	 
H 	 -40.831 	 -6.23421 	 17.8567 	 
C 	 -41.0872 	 -5.82316 	 15.5576 	 
H 	 -41.9166 	 -5.03315 	 15.554 	 
H 	 -41.1276 	 -6.47437 	 14.6885 	 
C 	 -39.7271 	 -5.05445 	 15.3423 	 
H 	 -39.5939 	 -4.2649 	 16.043 	 
H 	 -39.7751 	 -4.46588 	 14.407 	 
H 	 -38.8957 	 -5.77902 	 15.3781 	 
H 	 -45.95 	 -3.81947 	 19.7732 	 
H 	 -43.4754 	 -10.6739 	 16.164 	 
