34

S 	 -111.128 	 62.2 	 -75.3382 	 
C 	 -110.219 	 60.9788 	 -76.2083 	 
C 	 -111.044 	 60.0203 	 -76.7759 	 
C 	 -112.379 	 60.1813 	 -76.5016 	 
C 	 -112.587 	 61.3565 	 -75.774 	 
H 	 -113.198 	 59.5313 	 -76.7048 	 
C 	 -110.458 	 58.9366 	 -77.6602 	 
H 	 -109.794 	 59.4109 	 -78.4053 	 
H 	 -111.229 	 58.6254 	 -78.3296 	 
C 	 -109.765 	 57.7057 	 -77.0738 	 
H 	 -109.568 	 57.0501 	 -77.878 	 
H 	 -108.837 	 58.0443 	 -76.6512 	 
C 	 -110.661 	 56.9603 	 -76.0213 	 
H 	 -110.108 	 56.0547 	 -75.7283 	 
H 	 -110.848 	 57.6381 	 -75.15 	 
H 	 -111.637 	 56.528 	 -76.3581 	 
S 	 -114.155 	 62.0916 	 -73.732 	 
C 	 -115.86 	 62.5003 	 -74.0076 	 
C 	 -116.11 	 62.5825 	 -75.3628 	 
C 	 -114.97 	 62.3163 	 -76.2087 	 
C 	 -113.851 	 61.9835 	 -75.4587 	 
H 	 -117.092 	 62.857 	 -75.6391 	 
C 	 -114.995 	 62.2952 	 -77.7295 	 
H 	 -116.101 	 62.1356 	 -77.9015 	 
H 	 -114.434 	 61.5475 	 -78.174 	 
C 	 -114.803 	 63.6311 	 -78.3122 	 
H 	 -115.539 	 64.2797 	 -77.9989 	 
H 	 -114.927 	 63.3839 	 -79.3497 	 
C 	 -113.361 	 64.2942 	 -78.227 	 
H 	 -112.618 	 63.5929 	 -78.6461 	 
H 	 -112.964 	 64.4997 	 -77.2313 	 
H 	 -113.342 	 65.2905 	 -78.843 	 
H 	 -109.158 	 61.0267 	 -76.222 	 
H 	 -116.609 	 62.4485 	 -73.2444 	 
