34

S 	 28.2597 	 -6.63251 	 -119.097 	 
C 	 27.3923 	 -8.19669 	 -118.824 	 
C 	 27.7161 	 -9.08821 	 -119.876 	 
C 	 28.9939 	 -8.68451 	 -120.43 	 
C 	 29.4604 	 -7.39046 	 -120.17 	 
H 	 29.5405 	 -9.35406 	 -121.044 	 
C 	 27.2419 	 -10.5377 	 -120.036 	 
H 	 27.0188 	 -10.989 	 -119.097 	 
H 	 28.1299 	 -11.1422 	 -120.382 	 
C 	 25.9691 	 -10.6887 	 -120.876 	 
H 	 26.2202 	 -10.397 	 -121.866 	 
H 	 25.6961 	 -11.7776 	 -120.955 	 
C 	 24.7977 	 -9.92349 	 -120.257 	 
H 	 25.001 	 -8.84423 	 -120.044 	 
H 	 23.9113 	 -9.97245 	 -120.9 	 
H 	 24.4921 	 -10.2955 	 -119.282 	 
S 	 30.6109 	 -5.85892 	 -122.033 	 
C 	 32.1257 	 -5.04897 	 -121.592 	 
C 	 32.7854 	 -5.62069 	 -120.569 	 
C 	 31.9269 	 -6.57404 	 -119.946 	 
C 	 30.7573 	 -6.8204 	 -120.582 	 
H 	 33.7546 	 -5.35156 	 -120.202 	 
C 	 32.1806 	 -7.17127 	 -118.606 	 
H 	 32.1145 	 -8.20756 	 -118.68 	 
H 	 31.3857 	 -6.77841 	 -117.969 	 
C 	 33.4609 	 -6.79134 	 -117.954 	 
H 	 33.5097 	 -5.67782 	 -117.915 	 
H 	 34.4009 	 -7.16813 	 -118.394 	 
C 	 33.515 	 -7.33473 	 -116.484 	 
H 	 34.4298 	 -6.97511 	 -115.956 	 
H 	 33.4903 	 -8.42067 	 -116.392 	 
H 	 32.7288 	 -6.88621 	 -115.843 	 
H 	 26.555 	 -8.31378 	 -118.109 	 
H 	 32.5661 	 -4.2884 	 -122.257 	 
