34

S 	 -36.6814 	 -41.6304 	 -76.2306 	 
C 	 -37.9543 	 -40.4 	 -76.3094 	 
C 	 -39.0468 	 -40.8428 	 -77.0154 	 
C 	 -38.933 	 -42.2221 	 -77.4051 	 
C 	 -37.7537 	 -42.777 	 -77.095 	 
H 	 -39.5646 	 -42.8315 	 -77.9829 	 
C 	 -40.3307 	 -40.0918 	 -77.1781 	 
H 	 -40.849 	 -40.5134 	 -78.0975 	 
H 	 -40.145 	 -39.0882 	 -77.5622 	 
C 	 -41.22 	 -40.1632 	 -75.9435 	 
H 	 -41.7741 	 -41.1203 	 -75.8824 	 
H 	 -40.6238 	 -40.1132 	 -75.0539 	 
C 	 -42.3708 	 -39.1366 	 -75.8507 	 
H 	 -41.8938 	 -38.1824 	 -75.605 	 
H 	 -43.0144 	 -39.098 	 -76.6819 	 
H 	 -42.9292 	 -39.4009 	 -74.9084 	 
S 	 -36.6057 	 -45.1899 	 -76.3331 	 
C 	 -36.2958 	 -46.4331 	 -77.5236 	 
C 	 -36.6425 	 -46.0195 	 -78.7334 	 
C 	 -37.3264 	 -44.7642 	 -78.7993 	 
C 	 -37.2839 	 -44.069 	 -77.557 	 
H 	 -36.4475 	 -46.7197 	 -79.558 	 
C 	 -37.9082 	 -44.2774 	 -80.0999 	 
H 	 -37.1334 	 -44.4513 	 -80.8157 	 
H 	 -37.8657 	 -43.1898 	 -79.9493 	 
C 	 -39.2942 	 -44.7357 	 -80.508 	 
H 	 -39.9062 	 -44.5591 	 -79.6216 	 
H 	 -39.2459 	 -45.8241 	 -80.5757 	 
C 	 -39.8661 	 -43.9821 	 -81.7069 	 
H 	 -40.8863 	 -44.3983 	 -82.14 	 
H 	 -39.0902 	 -44.0738 	 -82.4956 	 
H 	 -40.1113 	 -42.8999 	 -81.5851 	 
H 	 -37.9411 	 -39.4732 	 -75.7696 	 
H 	 -35.7506 	 -47.3341 	 -77.4361 	 
