34

S 	 -50.7512 	 15.688 	 28.2124 	 
C 	 -51.3857 	 15.924 	 26.5673 	 
C 	 -50.49 	 15.5088 	 25.6388 	 
C 	 -49.3413 	 14.8596 	 26.1761 	 
C 	 -49.2971 	 14.9348 	 27.5497 	 
H 	 -48.5332 	 14.4773 	 25.6577 	 
C 	 -50.7504 	 15.4739 	 24.1271 	 
H 	 -51.8121 	 15.3293 	 23.8827 	 
H 	 -50.2853 	 14.5896 	 23.6867 	 
C 	 -50.4372 	 16.8494 	 23.4146 	 
H 	 -50.8295 	 17.7333 	 24.04 	 
H 	 -49.3706 	 16.8615 	 23.2566 	 
C 	 -51.0779 	 16.9112 	 22.0226 	 
H 	 -52.1755 	 16.668 	 22.0558 	 
H 	 -51.1501 	 17.9247 	 21.719 	 
H 	 -50.616 	 16.3121 	 21.2655 	 
S 	 -48.1858 	 13.2022 	 29.2008 	 
C 	 -46.718 	 13.573 	 29.9537 	 
C 	 -46.1615 	 14.8174 	 29.6732 	 
C 	 -47.0359 	 15.4925 	 28.7886 	 
C 	 -48.0869 	 14.6678 	 28.3303 	 
H 	 -45.241 	 15.2171 	 30.121 	 
C 	 -46.7622 	 16.8909 	 28.3173 	 
H 	 -47.0018 	 17.0251 	 27.2643 	 
H 	 -45.6917 	 16.9469 	 28.3298 	 
C 	 -47.458 	 18.0457 	 29.0107 	 
H 	 -48.5052 	 17.8456 	 28.983 	 
H 	 -47.3953 	 19.0366 	 28.5189 	 
C 	 -47.1413 	 18.3066 	 30.5004 	 
H 	 -47.6243 	 19.2523 	 30.7443 	 
H 	 -46.028 	 18.3027 	 30.593 	 
H 	 -47.4919 	 17.5574 	 31.2049 	 
H 	 -52.4318 	 16.1895 	 26.4413 	 
H 	 -46.1483 	 13.0222 	 30.7015 	 
