34

S 	 -28.994 	 -33.0968 	 -96.7239 	 
C 	 -27.6746 	 -34.2151 	 -96.446 	 
C 	 -26.6026 	 -33.57 	 -95.8784 	 
C 	 -26.8243 	 -32.1629 	 -95.7502 	 
C 	 -28.03 	 -31.7365 	 -96.303 	 
H 	 -26.1614 	 -31.3766 	 -95.3621 	 
C 	 -25.3504 	 -34.2478 	 -95.4246 	 
H 	 -25.4567 	 -35.221 	 -95.7115 	 
H 	 -25.3357 	 -34.232 	 -94.3557 	 
C 	 -24.0052 	 -33.6484 	 -95.9892 	 
H 	 -23.8235 	 -34.1006 	 -96.9913 	 
H 	 -23.9694 	 -32.5741 	 -95.943 	 
C 	 -22.7565 	 -34.0638 	 -95.2832 	 
H 	 -22.3519 	 -33.4577 	 -94.5161 	 
H 	 -22.9375 	 -35.08 	 -94.9148 	 
H 	 -21.9774 	 -34.169 	 -96.084 	 
S 	 -30.3716 	 -30.404 	 -95.6681 	 
C 	 -30.4523 	 -28.6759 	 -95.6656 	 
C 	 -29.3001 	 -28.1141 	 -96.1871 	 
C 	 -28.2976 	 -29.1386 	 -96.4193 	 
C 	 -28.6798 	 -30.4408 	 -96.217 	 
H 	 -29.1466 	 -27.0799 	 -96.3855 	 
C 	 -26.9529 	 -28.7165 	 -96.8672 	 
H 	 -27.1294 	 -28.1 	 -97.7174 	 
H 	 -26.5566 	 -29.6482 	 -97.2925 	 
C 	 -26.072 	 -28.0789 	 -95.7889 	 
H 	 -25.8903 	 -28.7688 	 -94.9499 	 
H 	 -26.5138 	 -27.0815 	 -95.5244 	 
C 	 -24.6908 	 -27.7128 	 -96.39 	 
H 	 -24.176 	 -28.6074 	 -96.5955 	 
H 	 -24.0725 	 -27.0679 	 -95.6927 	 
H 	 -24.8403 	 -27.2855 	 -97.4011 	 
H 	 -27.7788 	 -35.3454 	 -96.655 	 
H 	 -31.3119 	 -28.0884 	 -95.4398 	 
