34

S 	 -57.1655 	 -2.77055 	 -30.0404 	 
C 	 -57.213 	 -3.34943 	 -28.3814 	 
C 	 -57.0261 	 -2.35596 	 -27.4319 	 
C 	 -56.9263 	 -1.10273 	 -28.0439 	 
C 	 -56.8931 	 -1.1084 	 -29.4245 	 
H 	 -56.8184 	 -0.205281 	 -27.5125 	 
C 	 -56.8719 	 -2.62664 	 -25.9604 	 
H 	 -56.1493 	 -1.87297 	 -25.5544 	 
H 	 -56.3809 	 -3.58486 	 -25.9298 	 
C 	 -58.1561 	 -2.75042 	 -25.0991 	 
H 	 -58.6987 	 -1.87776 	 -25.3423 	 
H 	 -58.7097 	 -3.55806 	 -25.465 	 
C 	 -57.7856 	 -2.86628 	 -23.5722 	 
H 	 -57.3477 	 -3.80575 	 -23.3067 	 
H 	 -56.9817 	 -2.22442 	 -23.2445 	 
H 	 -58.5526 	 -2.59917 	 -22.8173 	 
S 	 -55.9376 	 -0.27192 	 -31.8876 	 
C 	 -55.9629 	 1.41874 	 -32.2848 	 
C 	 -56.5848 	 2.17552 	 -31.3252 	 
C 	 -56.8919 	 1.43598 	 -30.1529 	 
C 	 -56.6512 	 0.0551688 	 -30.3153 	 
H 	 -56.5842 	 3.2349 	 -31.4752 	 
C 	 -57.179 	 2.26385 	 -28.8739 	 
H 	 -56.7934 	 3.24867 	 -29.0381 	 
H 	 -56.4551 	 2.02197 	 -28.0548 	 
C 	 -58.6488 	 2.2376 	 -28.4284 	 
H 	 -58.8907 	 2.64949 	 -27.4225 	 
H 	 -59.0071 	 1.21864 	 -28.4169 	 
C 	 -59.5753 	 3.21769 	 -29.256 	 
H 	 -59.6946 	 2.7169 	 -30.113 	 
H 	 -59.11 	 4.16816 	 -29.3898 	 
H 	 -60.6137 	 3.28503 	 -28.805 	 
H 	 -57.2781 	 -4.38436 	 -28.1528 	 
H 	 -55.536 	 1.88608 	 -33.145 	 
