34

S 	 -124.664 	 57.8207 	 -57.3779 	 
C 	 -124.405 	 57.9557 	 -59.0894 	 
C 	 -125.475 	 57.442 	 -59.771 	 
C 	 -126.537 	 57.0431 	 -58.935 	 
C 	 -126.334 	 57.2889 	 -57.6129 	 
H 	 -127.549 	 56.6035 	 -59.2024 	 
C 	 -125.477 	 57.0446 	 -61.2037 	 
H 	 -124.75 	 57.7129 	 -61.6583 	 
H 	 -126.335 	 57.2753 	 -61.8468 	 
C 	 -125.04 	 55.6218 	 -61.4948 	 
H 	 -125.827 	 54.9413 	 -61.1566 	 
H 	 -124.889 	 55.6175 	 -62.5889 	 
C 	 -123.678 	 55.168 	 -60.9928 	 
H 	 -123.331 	 54.2199 	 -61.3636 	 
H 	 -122.843 	 55.9313 	 -61.1281 	 
H 	 -123.695 	 55.0862 	 -59.9587 	 
S 	 -126.272 	 56.4263 	 -55.0061 	 
C 	 -127.716 	 56.6039 	 -54.0514 	 
C 	 -128.825 	 56.8441 	 -54.8507 	 
C 	 -128.516 	 57.005 	 -56.2313 	 
C 	 -127.132 	 56.9215 	 -56.4745 	 
H 	 -129.839 	 56.9201 	 -54.4102 	 
C 	 -129.542 	 57.5819 	 -57.2895 	 
H 	 -129.145 	 58.3438 	 -58.021 	 
H 	 -130.224 	 58.1707 	 -56.6537 	 
C 	 -130.352 	 56.4876 	 -57.9921 	 
H 	 -130.779 	 55.7427 	 -57.327 	 
H 	 -129.762 	 55.8273 	 -58.6267 	 
C 	 -131.588 	 57.081 	 -58.7344 	 
H 	 -132.215 	 56.2546 	 -59.1843 	 
H 	 -131.177 	 57.5569 	 -59.6382 	 
H 	 -132.23 	 57.7308 	 -58.1557 	 
H 	 -123.455 	 58.1192 	 -59.6111 	 
H 	 -127.748 	 56.4057 	 -53.0185 	 
