34

S 	 -132.705 	 64.7996 	 -59.7649 	 
C 	 -133.084 	 66.5183 	 -59.6506 	 
C 	 -132.522 	 67.2594 	 -60.6689 	 
C 	 -131.825 	 66.4094 	 -61.5466 	 
C 	 -131.791 	 65.1059 	 -61.1727 	 
H 	 -131.357 	 66.7276 	 -62.4545 	 
C 	 -132.444 	 68.7814 	 -60.7896 	 
H 	 -133.356 	 69.2226 	 -60.3795 	 
H 	 -132.298 	 69.0581 	 -61.8637 	 
C 	 -131.285 	 69.46 	 -60.0663 	 
H 	 -130.39 	 69.0074 	 -60.5245 	 
H 	 -131.32 	 70.5331 	 -60.2785 	 
C 	 -131.203 	 69.2576 	 -58.5523 	 
H 	 -132.132 	 69.5078 	 -58.0977 	 
H 	 -131.062 	 68.1627 	 -58.35 	 
H 	 -130.351 	 69.7125 	 -58.1016 	 
S 	 -131.913 	 62.8788 	 -62.753 	 
C 	 -130.539 	 61.8389 	 -62.9649 	 
C 	 -129.408 	 62.3335 	 -62.3712 	 
C 	 -129.659 	 63.5919 	 -61.6975 	 
C 	 -131.023 	 64.0291 	 -61.7577 	 
H 	 -128.507 	 61.7361 	 -62.3331 	 
C 	 -128.574 	 64.1205 	 -60.7796 	 
H 	 -127.637 	 63.7324 	 -61.0046 	 
H 	 -128.693 	 63.7228 	 -59.7932 	 
C 	 -128.66 	 65.6265 	 -60.6509 	 
H 	 -129.518 	 65.9386 	 -60.0809 	 
H 	 -128.779 	 66.1497 	 -61.6069 	 
C 	 -127.43 	 66.2547 	 -59.8658 	 
H 	 -127.6 	 67.239 	 -59.4881 	 
H 	 -126.521 	 66.1416 	 -60.4535 	 
H 	 -127.16 	 65.5871 	 -59.0054 	 
H 	 -133.574 	 67.0389 	 -58.7959 	 
H 	 -130.482 	 60.9043 	 -63.5509 	 
