34

S 	 42.2771 	 -23.195 	 -115.006 	 
C 	 44.0054 	 -23.628 	 -115.155 	 
C 	 44.8001 	 -22.612 	 -114.623 	 
C 	 44.0187 	 -21.4679 	 -114.105 	 
C 	 42.6648 	 -21.6471 	 -114.227 	 
H 	 44.4025 	 -20.6543 	 -113.626 	 
C 	 46.3431 	 -22.6604 	 -114.421 	 
H 	 46.8375 	 -21.7267 	 -114.456 	 
H 	 46.728 	 -23.1465 	 -115.314 	 
C 	 46.8855 	 -23.3998 	 -113.146 	 
H 	 46.6271 	 -24.4367 	 -113.216 	 
H 	 47.9666 	 -23.3966 	 -113.091 	 
C 	 46.3517 	 -22.7776 	 -111.833 	 
H 	 46.2363 	 -21.6845 	 -111.784 	 
H 	 45.303 	 -23.1307 	 -111.773 	 
H 	 46.74 	 -23.1471 	 -110.859 	 
S 	 40.8713 	 -19.7575 	 -114.732 	 
C 	 39.9121 	 -18.885 	 -113.475 	 
C 	 40.2273 	 -19.4554 	 -112.27 	 
C 	 41.1072 	 -20.5533 	 -112.334 	 
C 	 41.6376 	 -20.8162 	 -113.581 	 
H 	 39.8077 	 -19.017 	 -111.346 	 
C 	 41.708 	 -21.1112 	 -111.057 	 
H 	 41.609 	 -20.4216 	 -110.271 	 
H 	 42.7933 	 -21.2948 	 -111.17 	 
C 	 40.9769 	 -22.389 	 -110.537 	 
H 	 40.1929 	 -22.1388 	 -109.865 	 
H 	 41.6366 	 -23.0753 	 -109.948 	 
C 	 40.273 	 -23.3279 	 -111.592 	 
H 	 41.1052 	 -23.6985 	 -112.012 	 
H 	 39.6314 	 -22.7242 	 -112.229 	 
H 	 39.7918 	 -24.2319 	 -111.152 	 
H 	 44.3516 	 -24.5431 	 -115.511 	 
H 	 39.2489 	 -18.1149 	 -113.749 	 
