34

S 	 -33.7154 	 -1.38821 	 11.1284 	 
C 	 -32.6669 	 -2.34729 	 12.096 	 
C 	 -33.1715 	 -2.35616 	 13.4128 	 
C 	 -34.3668 	 -1.60214 	 13.6037 	 
C 	 -34.837 	 -1.02317 	 12.4308 	 
H 	 -34.8861 	 -1.52534 	 14.5169 	 
C 	 -32.4574 	 -3.12311 	 14.4759 	 
H 	 -32.4394 	 -4.12309 	 14.0758 	 
H 	 -33.0724 	 -3.16458 	 15.392 	 
C 	 -30.9682 	 -2.81351 	 14.869 	 
H 	 -30.5083 	 -3.5814 	 15.5483 	 
H 	 -30.3439 	 -2.79971 	 13.9653 	 
C 	 -30.8678 	 -1.45339 	 15.5795 	 
H 	 -31.5829 	 -1.38309 	 16.3448 	 
H 	 -29.8736 	 -1.321 	 16.0278 	 
H 	 -31.0339 	 -0.678749 	 14.8352 	 
S 	 -36.8062 	 -0.534617 	 10.531 	 
C 	 -38.0417 	 0.600041 	 10.9359 	 
C 	 -38.0805 	 0.915745 	 12.3024 	 
C 	 -36.8954 	 0.498655 	 12.965 	 
C 	 -36.1035 	 -0.325364 	 12.1754 	 
H 	 -38.9261 	 1.53872 	 12.6967 	 
C 	 -36.5603 	 1.00554 	 14.431 	 
H 	 -36.5741 	 2.1174 	 14.5011 	 
H 	 -35.5559 	 0.673542 	 14.7096 	 
C 	 -37.4697 	 0.455622 	 15.5287 	 
H 	 -37.3409 	 -0.598921 	 15.5619 	 
H 	 -38.4202 	 0.730983 	 15.1161 	 
C 	 -37.2848 	 1.00783 	 16.947 	 
H 	 -38.1712 	 1.59237 	 17.1716 	 
H 	 -36.4479 	 1.69488 	 17.0073 	 
H 	 -37.0345 	 0.300073 	 17.6365 	 
H 	 -31.8826 	 -3.07969 	 11.8475 	 
H 	 -38.704 	 0.857617 	 10.1943 	 
