34

S 	 -112.629 	 21.7191 	 -117.318 	 
C 	 -112.96 	 20.0817 	 -116.666 	 
C 	 -112.4 	 19.8346 	 -115.409 	 
C 	 -111.643 	 20.9909 	 -114.961 	 
C 	 -111.657 	 22.047 	 -115.859 	 
H 	 -110.926 	 21.1193 	 -114.189 	 
C 	 -112.403 	 18.456 	 -114.683 	 
H 	 -111.468 	 18.376 	 -114.111 	 
H 	 -112.414 	 17.6205 	 -115.448 	 
C 	 -113.45 	 18.2468 	 -113.534 	 
H 	 -113.231 	 17.3196 	 -112.95 	 
H 	 -113.413 	 19.0776 	 -112.86 	 
C 	 -114.805 	 17.9773 	 -114.241 	 
H 	 -114.827 	 17.4265 	 -115.217 	 
H 	 -115.567 	 17.5755 	 -113.588 	 
H 	 -115.328 	 18.9404 	 -114.351 	 
S 	 -111.766 	 24.6977 	 -115.238 	 
C 	 -110.362 	 25.6521 	 -115.114 	 
C 	 -109.242 	 24.8847 	 -115.171 	 
C 	 -109.483 	 23.4846 	 -115.446 	 
C 	 -110.855 	 23.2321 	 -115.626 	 
H 	 -108.314 	 25.3492 	 -114.958 	 
C 	 -108.359 	 22.4811 	 -115.61 	 
H 	 -108.77 	 21.6294 	 -116.051 	 
H 	 -108.236 	 22.2184 	 -114.543 	 
C 	 -107.004 	 22.9329 	 -116.229 	 
H 	 -106.773 	 23.9022 	 -115.81 	 
H 	 -107.091 	 22.9089 	 -117.307 	 
C 	 -105.733 	 22.2013 	 -115.789 	 
H 	 -105.701 	 22.1378 	 -114.705 	 
H 	 -104.851 	 22.6039 	 -116.253 	 
H 	 -105.827 	 21.1984 	 -116.196 	 
H 	 -113.427 	 19.2656 	 -117.212 	 
H 	 -110.263 	 26.7266 	 -114.85 	 
