34

S 	 -31.9307 	 -31.8172 	 -95.3724 	 
C 	 -32.914 	 -30.9601 	 -96.49 	 
C 	 -33.1994 	 -29.6545 	 -96.0579 	 
C 	 -32.5399 	 -29.3991 	 -94.8179 	 
C 	 -31.6221 	 -30.3997 	 -94.4572 	 
H 	 -32.6701 	 -28.5646 	 -94.0711 	 
C 	 -34.1933 	 -28.7212 	 -96.7128 	 
H 	 -34.6662 	 -28.0592 	 -96.0165 	 
H 	 -34.9609 	 -29.3087 	 -97.1744 	 
C 	 -33.6648 	 -27.8346 	 -97.8348 	 
H 	 -33.5629 	 -28.4135 	 -98.7756 	 
H 	 -34.5458 	 -27.2464 	 -98.0076 	 
C 	 -32.3614 	 -27.1047 	 -97.4779 	 
H 	 -31.622 	 -27.7312 	 -97.0016 	 
H 	 -31.9308 	 -26.8336 	 -98.4698 	 
H 	 -32.5779 	 -26.1681 	 -96.9575 	 
S 	 -31.1946 	 -31.8031 	 -92.2215 	 
C 	 -29.8712 	 -31.3326 	 -91.1601 	 
C 	 -29.2302 	 -30.1235 	 -91.5667 	 
C 	 -29.7616 	 -29.7192 	 -92.869 	 
C 	 -30.7929 	 -30.4824 	 -93.309 	 
H 	 -28.4148 	 -29.6936 	 -90.9177 	 
C 	 -29.1943 	 -28.6227 	 -93.6885 	 
H 	 -28.7767 	 -27.8461 	 -93.0958 	 
H 	 -29.9528 	 -28.1088 	 -94.1929 	 
C 	 -28.187 	 -29.0653 	 -94.7333 	 
H 	 -28.5419 	 -29.6651 	 -95.5841 	 
H 	 -27.4882 	 -29.7081 	 -94.1678 	 
C 	 -27.3518 	 -27.9137 	 -95.2853 	 
H 	 -27.0306 	 -27.1722 	 -94.5947 	 
H 	 -27.8186 	 -27.454 	 -96.159 	 
H 	 -26.4734 	 -28.2759 	 -95.7552 	 
H 	 -33.2686 	 -31.4039 	 -97.4001 	 
H 	 -29.6113 	 -31.8603 	 -90.2841 	 
