34

S 	 -44.0779 	 15.6473 	 -102.154 	 
C 	 -43.568 	 13.918 	 -101.78 	 
C 	 -44.6762 	 13.1017 	 -101.724 	 
C 	 -45.8934 	 13.7679 	 -101.969 	 
C 	 -45.7405 	 15.1356 	 -102.322 	 
H 	 -46.8972 	 13.3817 	 -101.967 	 
C 	 -44.5066 	 11.5321 	 -101.467 	 
H 	 -43.4259 	 11.4248 	 -101.146 	 
H 	 -44.7614 	 11.1027 	 -102.385 	 
C 	 -45.4696 	 11.0365 	 -100.421 	 
H 	 -46.5212 	 11.0499 	 -100.868 	 
H 	 -45.1886 	 9.96636 	 -100.236 	 
C 	 -45.4791 	 11.7596 	 -99.0173 	 
H 	 -44.5048 	 11.8495 	 -98.6346 	 
H 	 -45.9086 	 12.7485 	 -99.107 	 
H 	 -45.9995 	 11.2268 	 -98.3036 	 
S 	 -46.7583 	 17.6196 	 -101.605 	 
C 	 -48.3092 	 18.1987 	 -102.271 	 
C 	 -48.7832 	 17.2988 	 -103.258 	 
C 	 -47.9499 	 16.1262 	 -103.359 	 
C 	 -46.8419 	 16.1272 	 -102.528 	 
H 	 -49.6274 	 17.4756 	 -103.916 	 
C 	 -48.2732 	 15.0597 	 -104.367 	 
H 	 -49.113 	 15.4206 	 -105.054 	 
H 	 -48.8795 	 14.2959 	 -103.903 	 
C 	 -47.1738 	 14.5854 	 -105.376 	 
H 	 -46.5548 	 13.9461 	 -104.796 	 
H 	 -46.5977 	 15.4633 	 -105.664 	 
C 	 -47.7491 	 13.842 	 -106.623 	 
H 	 -48.4595 	 14.4146 	 -107.11 	 
H 	 -48.1353 	 12.8937 	 -106.304 	 
H 	 -46.9185 	 13.5768 	 -107.237 	 
H 	 -42.5676 	 13.6812 	 -101.647 	 
H 	 -48.8854 	 19.0673 	 -102.034 	 
