34

S 	 -126.6 	 64.817 	 -58.2596 	 
C 	 -128.321 	 64.7131 	 -58.341 	 
C 	 -128.805 	 63.4896 	 -57.9134 	 
C 	 -127.769 	 62.6175 	 -57.5251 	 
C 	 -126.478 	 63.1212 	 -57.7723 	 
H 	 -127.856 	 61.5942 	 -57.2049 	 
C 	 -130.217 	 63.0598 	 -57.7339 	 
H 	 -130.598 	 63.6816 	 -56.9565 	 
H 	 -130.112 	 62.1633 	 -57.11 	 
C 	 -131.145 	 62.9839 	 -58.9652 	 
H 	 -132.161 	 63.0082 	 -58.528 	 
H 	 -130.987 	 63.9051 	 -59.4917 	 
C 	 -130.891 	 61.765 	 -59.8389 	 
H 	 -130.978 	 60.8514 	 -59.2427 	 
H 	 -131.562 	 61.7354 	 -60.7189 	 
H 	 -129.828 	 61.7047 	 -60.1141 	 
S 	 -123.986 	 63.1851 	 -56.4916 	 
C 	 -123.111 	 61.7076 	 -56.4667 	 
C 	 -123.793 	 60.6183 	 -57.0218 	 
C 	 -125.002 	 61.0852 	 -57.6523 	 
C 	 -125.28 	 62.3861 	 -57.4118 	 
H 	 -123.421 	 59.5986 	 -56.9346 	 
C 	 -125.841 	 60.0825 	 -58.4598 	 
H 	 -126.804 	 59.8811 	 -58.017 	 
H 	 -125.383 	 59.0886 	 -58.4014 	 
C 	 -126.119 	 60.4545 	 -59.9637 	 
H 	 -126.765 	 61.3614 	 -59.8442 	 
H 	 -126.691 	 59.6705 	 -60.4598 	 
C 	 -124.927 	 60.9493 	 -60.7627 	 
H 	 -125.115 	 61.313 	 -61.77 	 
H 	 -124.183 	 60.1457 	 -60.8212 	 
H 	 -124.449 	 61.7075 	 -60.1893 	 
H 	 -129.021 	 65.5748 	 -58.5004 	 
H 	 -122.29 	 61.629 	 -55.7905 	 
