34

S 	 -106.662 	 18.2526 	 -115.677 	 
C 	 -104.896 	 18.1211 	 -115.715 	 
C 	 -104.304 	 19.3556 	 -115.831 	 
C 	 -105.319 	 20.4262 	 -115.789 	 
C 	 -106.617 	 20.027 	 -115.62 	 
H 	 -105.004 	 21.3746 	 -115.705 	 
C 	 -102.83 	 19.6089 	 -115.777 	 
H 	 -102.724 	 20.4663 	 -116.45 	 
H 	 -102.143 	 18.8243 	 -116.197 	 
C 	 -102.163 	 20.0323 	 -114.481 	 
H 	 -101.157 	 20.4441 	 -114.562 	 
H 	 -102.731 	 20.9718 	 -114.134 	 
C 	 -102.186 	 19.0132 	 -113.338 	 
H 	 -102.24 	 18.0224 	 -113.766 	 
H 	 -101.198 	 18.8883 	 -112.878 	 
H 	 -103.029 	 19.1337 	 -112.661 	 
S 	 -108.446 	 20.2648 	 -113.655 	 
C 	 -109.319 	 21.792 	 -113.33 	 
C 	 -109.032 	 22.6628 	 -114.437 	 
C 	 -108.089 	 22.1138 	 -115.339 	 
C 	 -107.754 	 20.7924 	 -115.111 	 
H 	 -109.416 	 23.6781 	 -114.386 	 
C 	 -107.723 	 22.8204 	 -116.581 	 
H 	 -107.21 	 22.2072 	 -117.292 	 
H 	 -106.928 	 23.4861 	 -116.303 	 
C 	 -108.87 	 23.6416 	 -117.204 	 
H 	 -109.381 	 24.256 	 -116.542 	 
H 	 -109.559 	 22.8786 	 -117.458 	 
C 	 -108.555 	 24.6067 	 -118.339 	 
H 	 -109.447 	 25.1187 	 -118.68 	 
H 	 -108.091 	 24.2281 	 -119.225 	 
H 	 -107.964 	 25.4067 	 -117.961 	 
H 	 -104.383 	 17.1903 	 -115.631 	 
H 	 -110.014 	 21.9944 	 -112.477 	 
