34

S 	 -43.7011 	 -43.3336 	 -76.7412 	 
C 	 -44.9612 	 -42.8117 	 -75.6115 	 
C 	 -44.5558 	 -42.4651 	 -74.3574 	 
C 	 -43.1335 	 -42.5323 	 -74.3393 	 
C 	 -42.421 	 -42.8918 	 -75.5365 	 
H 	 -42.4204 	 -42.2779 	 -73.5614 	 
C 	 -45.2707 	 -41.8745 	 -73.247 	 
H 	 -44.8095 	 -42.4576 	 -72.3496 	 
H 	 -46.3051 	 -42.1469 	 -73.4263 	 
C 	 -45.1437 	 -40.3374 	 -73.098 	 
H 	 -44.0574 	 -40.1094 	 -73.0286 	 
H 	 -45.5555 	 -39.8627 	 -74.0067 	 
C 	 -45.7957 	 -39.7732 	 -71.769 	 
H 	 -46.8263 	 -39.8564 	 -71.6752 	 
H 	 -45.4429 	 -40.3979 	 -70.937 	 
H 	 -45.4477 	 -38.7299 	 -71.5422 	 
S 	 -39.8787 	 -43.3205 	 -74.261 	 
C 	 -38.4283 	 -43.1539 	 -75.175 	 
C 	 -38.7009 	 -43.1212 	 -76.5099 	 
C 	 -40.1116 	 -43.0882 	 -76.7835 	 
C 	 -40.9289 	 -43.1102 	 -75.6783 	 
H 	 -37.9017 	 -43.0255 	 -77.2519 	 
C 	 -40.7045 	 -42.8142 	 -78.1238 	 
H 	 -41.4572 	 -42.092 	 -78.1102 	 
H 	 -41.1841 	 -43.7932 	 -78.3316 	 
C 	 -39.6572 	 -42.4755 	 -79.2212 	 
H 	 -38.9142 	 -43.2161 	 -79.1793 	 
H 	 -39.2209 	 -41.5937 	 -78.8727 	 
C 	 -40.2024 	 -42.2228 	 -80.6225 	 
H 	 -39.474 	 -41.9164 	 -81.3652 	 
H 	 -40.8555 	 -41.3361 	 -80.5436 	 
H 	 -40.7888 	 -43.0472 	 -81.0121 	 
H 	 -46.0109 	 -42.5871 	 -75.7618 	 
H 	 -37.4686 	 -43.0697 	 -74.7468 	 
