34

S 	 9.12252 	 -16.4622 	 -115 	 
C 	 7.98651 	 -16.5457 	 -116.349 	 
C 	 7.51872 	 -17.8588 	 -116.493 	 
C 	 7.87705 	 -18.7453 	 -115.428 	 
C 	 8.63162 	 -18.1116 	 -114.487 	 
H 	 7.62076 	 -19.772 	 -115.218 	 
C 	 6.70678 	 -18.3995 	 -117.658 	 
H 	 6.04646 	 -17.5662 	 -117.966 	 
H 	 6.02679 	 -19.1941 	 -117.264 	 
C 	 7.46456 	 -19.0502 	 -118.827 	 
H 	 8.1652 	 -18.3075 	 -119.317 	 
H 	 8.12482 	 -19.7915 	 -118.387 	 
C 	 6.52778 	 -19.818 	 -119.845 	 
H 	 6.99196 	 -20.2342 	 -120.728 	 
H 	 6.07767 	 -20.7306 	 -119.338 	 
H 	 5.65069 	 -19.3178 	 -120.205 	 
S 	 9.9111 	 -20.2205 	 -113.468 	 
C 	 10.2869 	 -20.3025 	 -111.759 	 
C 	 9.94183 	 -19.1406 	 -111.112 	 
C 	 9.23586 	 -18.1672 	 -111.966 	 
C 	 9.14253 	 -18.6645 	 -113.262 	 
H 	 10.1573 	 -19.0631 	 -110.038 	 
C 	 8.73193 	 -16.8641 	 -111.485 	 
H 	 9.05266 	 -16.1039 	 -112.208 	 
H 	 9.1206 	 -16.5579 	 -110.486 	 
C 	 7.18244 	 -16.7658 	 -111.2 	 
H 	 6.90633 	 -15.8205 	 -110.662 	 
H 	 7.03992 	 -17.588 	 -110.523 	 
C 	 6.23248 	 -16.8375 	 -112.427 	 
H 	 6.47327 	 -17.6731 	 -113.067 	 
H 	 6.24674 	 -15.9165 	 -113.039 	 
H 	 5.25659 	 -16.9704 	 -111.97 	 
H 	 7.62134 	 -15.7599 	 -117.039 	 
H 	 10.6828 	 -21.1608 	 -111.215 	 
