34

S 	 -43.7847 	 -2.21906 	 -22.1414 	 
C 	 -42.9998 	 -1.48472 	 -20.765 	 
C 	 -42.0604 	 -2.34291 	 -20.2262 	 
C 	 -42.0089 	 -3.62691 	 -20.8862 	 
C 	 -42.8985 	 -3.70736 	 -21.9455 	 
H 	 -41.4777 	 -4.49967 	 -20.5344 	 
C 	 -41.3313 	 -2.07479 	 -18.8987 	 
H 	 -41.8312 	 -2.77425 	 -18.1911 	 
H 	 -41.6312 	 -1.10243 	 -18.4786 	 
C 	 -39.8149 	 -2.21923 	 -18.946 	 
H 	 -39.4865 	 -1.96655 	 -17.9294 	 
H 	 -39.5344 	 -3.21095 	 -19.2175 	 
C 	 -39.0827 	 -1.22113 	 -19.8558 	 
H 	 -39.2526 	 -1.53348 	 -20.8837 	 
H 	 -39.4387 	 -0.170593 	 -19.6938 	 
H 	 -38.0438 	 -1.24645 	 -19.6673 	 
S 	 -44.7328 	 -5.24216 	 -23.4036 	 
C 	 -44.0259 	 -6.53177 	 -24.4419 	 
C 	 -42.6574 	 -6.53842 	 -24.5063 	 
C 	 -42.1227 	 -5.54381 	 -23.6255 	 
C 	 -43.0651 	 -4.72338 	 -22.984 	 
H 	 -42.1534 	 -7.26228 	 -25.1043 	 
C 	 -40.605 	 -5.47326 	 -23.3067 	 
H 	 -40.4037 	 -6.03983 	 -22.3809 	 
H 	 -40.348 	 -4.50878 	 -22.9906 	 
C 	 -39.5821 	 -5.7764 	 -24.3716 	 
H 	 -39.443 	 -6.85546 	 -24.523 	 
H 	 -38.6225 	 -5.38403 	 -24.0377 	 
C 	 -39.6862 	 -4.84724 	 -25.7322 	 
H 	 -40.366 	 -5.1873 	 -26.5412 	 
H 	 -38.6439 	 -4.79522 	 -26.1792 	 
H 	 -39.9879 	 -3.7761 	 -25.5423 	 
H 	 -43.0812 	 -0.493231 	 -20.248 	 
H 	 -44.6004 	 -7.09767 	 -25.0504 	 
