34

S 	 -65.6848 	 9.61822 	 -73.5897 	 
C 	 -67.0872 	 8.52137 	 -73.6716 	 
C 	 -67.842 	 8.64403 	 -74.8334 	 
C 	 -67.2489 	 9.60115 	 -75.7122 	 
C 	 -66.0306 	 10.0921 	 -75.2932 	 
H 	 -67.613 	 9.94268 	 -76.6692 	 
C 	 -69.1616 	 7.96013 	 -75.011 	 
H 	 -68.9719 	 6.89694 	 -74.7139 	 
H 	 -69.3213 	 7.8593 	 -76.0332 	 
C 	 -70.3758 	 8.42673 	 -74.1402 	 
H 	 -71.1324 	 7.69693 	 -74.2487 	 
H 	 -70.1364 	 8.41873 	 -73.0556 	 
C 	 -70.9884 	 9.70576 	 -74.7091 	 
H 	 -70.4819 	 10.6304 	 -74.3863 	 
H 	 -71.0698 	 9.62363 	 -75.744 	 
H 	 -72.0313 	 9.779 	 -74.302 	 
S 	 -64.1761 	 12.2555 	 -75.3975 	 
C 	 -63.3783 	 12.6406 	 -76.8721 	 
C 	 -63.7509 	 11.762 	 -77.846 	 
C 	 -64.7175 	 10.834 	 -77.4068 	 
C 	 -65.0507 	 10.8928 	 -76.1015 	 
H 	 -63.2934 	 11.871 	 -78.8435 	 
C 	 -65.2376 	 9.80357 	 -78.4542 	 
H 	 -65.8325 	 8.98386 	 -77.9712 	 
H 	 -64.491 	 9.25793 	 -78.8717 	 
C 	 -66.098 	 10.3507 	 -79.5623 	 
H 	 -65.4652 	 10.85 	 -80.3466 	 
H 	 -66.8117 	 11.0417 	 -79.1618 	 
C 	 -66.8905 	 9.27973 	 -80.3426 	 
H 	 -67.6679 	 9.84435 	 -80.9254 	 
H 	 -67.4872 	 8.55993 	 -79.7394 	 
H 	 -66.1998 	 8.85989 	 -81.0379 	 
H 	 -67.3501 	 7.93057 	 -72.8658 	 
H 	 -62.6659 	 13.4886 	 -77.0562 	 
