34

S 	 -32.2116 	 -37.1059 	 -86.7216 	 
C 	 -31.1041 	 -35.7056 	 -86.4602 	 
C 	 -30.6669 	 -35.2375 	 -87.7471 	 
C 	 -31.1902 	 -35.9609 	 -88.8855 	 
C 	 -32.1008 	 -36.9561 	 -88.5095 	 
H 	 -30.8805 	 -35.8337 	 -89.8962 	 
C 	 -29.6149 	 -34.1451 	 -87.9484 	 
H 	 -29.5072 	 -33.6673 	 -87.0199 	 
H 	 -30.1856 	 -33.4493 	 -88.587 	 
C 	 -28.1735 	 -34.4278 	 -88.5185 	 
H 	 -27.5003 	 -34.8566 	 -87.7371 	 
H 	 -28.2597 	 -35.2212 	 -89.2926 	 
C 	 -27.4721 	 -33.2317 	 -89.1048 	 
H 	 -27.5065 	 -32.4524 	 -88.3561 	 
H 	 -26.4705 	 -33.5116 	 -89.3777 	 
H 	 -27.8961 	 -32.7968 	 -90.017 	 
S 	 -33.9743 	 -37.6869 	 -90.2476 	 
C 	 -33.7446 	 -39.1254 	 -91.2081 	 
C 	 -32.4507 	 -39.5908 	 -91.0287 	 
C 	 -31.6633 	 -38.8816 	 -90.1328 	 
C 	 -32.45 	 -37.9157 	 -89.4951 	 
H 	 -32.2386 	 -40.5017 	 -91.5603 	 
C 	 -30.288 	 -39.4033 	 -89.6895 	 
H 	 -30.3786 	 -40.429 	 -89.2162 	 
H 	 -29.946 	 -38.8076 	 -88.8624 	 
C 	 -29.2081 	 -39.4234 	 -90.7622 	 
H 	 -29.3935 	 -38.7259 	 -91.5976 	 
H 	 -29.3568 	 -40.4054 	 -91.1672 	 
C 	 -27.8235 	 -39.1567 	 -90.3232 	 
H 	 -27.5423 	 -39.7098 	 -89.4048 	 
H 	 -27.5225 	 -38.1102 	 -90.1373 	 
H 	 -27.1623 	 -39.5391 	 -91.0901 	 
H 	 -30.8111 	 -35.1434 	 -85.59 	 
H 	 -34.4695 	 -39.5843 	 -91.8712 	 
