34

S 	 -117.173 	 60.1258 	 -39.644 	 
C 	 -116.621 	 58.481 	 -39.3904 	 
C 	 -117.555 	 57.7046 	 -38.7196 	 
C 	 -118.73 	 58.4757 	 -38.4158 	 
C 	 -118.736 	 59.7231 	 -39.0023 	 
H 	 -119.608 	 58.2197 	 -37.8106 	 
C 	 -117.415 	 56.2693 	 -38.2389 	 
H 	 -117.738 	 55.6145 	 -39.0989 	 
H 	 -118.076 	 56.147 	 -37.3431 	 
C 	 -116.021 	 55.918 	 -37.8007 	 
H 	 -115.395 	 55.8838 	 -38.6871 	 
H 	 -115.634 	 56.7065 	 -37.1847 	 
C 	 -115.926 	 54.5771 	 -37.0111 	 
H 	 -116.496 	 54.5867 	 -36.0716 	 
H 	 -116.417 	 53.8146 	 -37.5845 	 
H 	 -114.893 	 54.1954 	 -36.8691 	 
S 	 -119.326 	 62.4057 	 -38.6855 	 
C 	 -120.967 	 62.84 	 -38.5346 	 
C 	 -121.866 	 61.8173 	 -38.6321 	 
C 	 -121.258 	 60.5461 	 -38.8411 	 
C 	 -119.801 	 60.6706 	 -38.9391 	 
H 	 -122.895 	 62.0514 	 -38.5135 	 
C 	 -122.079 	 59.3275 	 -38.988 	 
H 	 -121.489 	 58.5682 	 -39.5434 	 
H 	 -122.989 	 59.5723 	 -39.512 	 
C 	 -122.504 	 58.7557 	 -37.6245 	 
H 	 -122.839 	 59.5045 	 -36.8892 	 
H 	 -121.688 	 58.2249 	 -37.1358 	 
C 	 -123.666 	 57.6991 	 -37.8776 	 
H 	 -124.475 	 58.2316 	 -38.3415 	 
H 	 -123.933 	 57.2265 	 -36.8906 	 
H 	 -123.379 	 56.9006 	 -38.5741 	 
H 	 -115.749 	 58.0265 	 -39.7436 	 
H 	 -121.325 	 63.8276 	 -38.3258 	 
