34

S 	 34.5548 	 -28.6698 	 -129.958 	 
C 	 35.9784 	 -29.2443 	 -130.87 	 
C 	 35.9456 	 -30.6272 	 -130.792 	 
C 	 34.8891 	 -31.1364 	 -129.955 	 
C 	 34.15 	 -30.1776 	 -129.235 	 
H 	 34.7755 	 -32.1461 	 -129.747 	 
C 	 37.0564 	 -31.5764 	 -131.349 	 
H 	 37.743 	 -31.0712 	 -132.037 	 
H 	 36.622 	 -32.3932 	 -131.967 	 
C 	 37.9233 	 -32.2614 	 -130.347 	 
H 	 37.4383 	 -33.0597 	 -129.868 	 
H 	 38.7201 	 -32.8835 	 -130.815 	 
C 	 38.5464 	 -31.3693 	 -129.252 	 
H 	 37.8965 	 -31.1088 	 -128.399 	 
H 	 39.251 	 -32.013 	 -128.746 	 
H 	 39.1442 	 -30.5806 	 -129.629 	 
S 	 31.71 	 -29.2915 	 -128.234 	 
C 	 31.0938 	 -30.1408 	 -126.847 	 
C 	 31.8591 	 -31.1902 	 -126.491 	 
C 	 32.9461 	 -31.4382 	 -127.351 	 
C 	 33.0885 	 -30.4234 	 -128.297 	 
H 	 31.6731 	 -31.815 	 -125.642 	 
C 	 33.8859 	 -32.5566 	 -126.925 	 
H 	 34.1744 	 -32.6172 	 -125.866 	 
H 	 34.8329 	 -32.3494 	 -127.459 	 
C 	 33.4522 	 -33.9421 	 -127.383 	 
H 	 34.4006 	 -34.4976 	 -127.34 	 
H 	 33.1358 	 -33.9933 	 -128.43 	 
C 	 32.3523 	 -34.6299 	 -126.493 	 
H 	 32.5787 	 -34.8018 	 -125.463 	 
H 	 32.0039 	 -35.638 	 -126.917 	 
H 	 31.4356 	 -34 	 -126.478 	 
H 	 36.6871 	 -28.6986 	 -131.517 	 
H 	 30.2605 	 -29.9298 	 -126.254 	 
