34

S 	 -75.3359 	 -2.90457 	 -66.2909 	 
C 	 -73.8225 	 -2.12438 	 -65.9178 	 
C 	 -72.8096 	 -2.43179 	 -66.7595 	 
C 	 -73.2265 	 -3.42571 	 -67.7043 	 
C 	 -74.5331 	 -3.8513 	 -67.5405 	 
H 	 -72.6165 	 -3.91087 	 -68.4572 	 
C 	 -71.4506 	 -1.76884 	 -66.7871 	 
H 	 -71.5006 	 -1.25589 	 -65.7684 	 
H 	 -71.519 	 -0.961656 	 -67.5127 	 
C 	 -70.3089 	 -2.73115 	 -67.059 	 
H 	 -70.4614 	 -3.6285 	 -66.4425 	 
H 	 -70.2548 	 -2.91785 	 -68.0977 	 
C 	 -68.844 	 -2.18534 	 -66.8364 	 
H 	 -68.6027 	 -2.24207 	 -65.7383 	 
H 	 -68.1278 	 -2.68636 	 -67.5412 	 
H 	 -68.7914 	 -1.1662 	 -67.2402 	 
S 	 -75.3438 	 -6.45085 	 -67.8775 	 
C 	 -76.0364 	 -6.92905 	 -69.39 	 
C 	 -76.2203 	 -5.82596 	 -70.2255 	 
C 	 -75.7652 	 -4.56167 	 -69.7156 	 
C 	 -75.2162 	 -4.74964 	 -68.4444 	 
H 	 -76.4894 	 -6.01661 	 -71.1937 	 
C 	 -75.6842 	 -3.30432 	 -70.5921 	 
H 	 -75.3732 	 -3.5963 	 -71.6075 	 
H 	 -74.8068 	 -2.70494 	 -70.3707 	 
C 	 -77.002 	 -2.50025 	 -70.7246 	 
H 	 -77.3398 	 -2.32087 	 -69.7364 	 
H 	 -77.908 	 -2.85565 	 -71.1328 	 
C 	 -76.7714 	 -1.15567 	 -71.324 	 
H 	 -76.1666 	 -1.21443 	 -72.2036 	 
H 	 -76.358 	 -0.481567 	 -70.5325 	 
H 	 -77.69 	 -0.726678 	 -71.6092 	 
H 	 -73.6386 	 -1.3883 	 -65.1763 	 
H 	 -76.294 	 -7.92927 	 -69.7038 	 
