34

S 	 -146.468 	 4.68493 	 15.6722 	 
C 	 -146.192 	 3.20989 	 14.7838 	 
C 	 -145.422 	 3.46062 	 13.5944 	 
C 	 -145.166 	 4.85542 	 13.392 	 
C 	 -145.617 	 5.64423 	 14.4925 	 
H 	 -144.756 	 5.25572 	 12.4199 	 
C 	 -145.24 	 2.43334 	 12.5057 	 
H 	 -145.269 	 1.52147 	 13.0841 	 
H 	 -144.213 	 2.53715 	 12.1185 	 
C 	 -146.272 	 2.49701 	 11.3269 	 
H 	 -147.25 	 2.68681 	 11.7311 	 
H 	 -146.206 	 3.35978 	 10.6554 	 
C 	 -146.313 	 1.27859 	 10.3869 	 
H 	 -147.028 	 1.36693 	 9.56147 	 
H 	 -145.303 	 0.974551 	 10.0751 	 
H 	 -146.615 	 0.37895 	 10.9004 	 
S 	 -143.868 	 7.67925 	 14.9221 	 
C 	 -144.425 	 9.34967 	 14.6529 	 
C 	 -145.81 	 9.41075 	 14.5005 	 
C 	 -146.432 	 8.1269 	 14.4187 	 
C 	 -145.476 	 7.10051 	 14.5506 	 
H 	 -146.196 	 10.4144 	 14.3766 	 
C 	 -147.912 	 7.97992 	 14.3954 	 
H 	 -148.318 	 8.87472 	 14.8693 	 
H 	 -148.147 	 7.28277 	 15.1744 	 
C 	 -148.577 	 7.56918 	 13.105 	 
H 	 -148.417 	 6.5112 	 12.9709 	 
H 	 -148.194 	 8.17634 	 12.2759 	 
C 	 -150.077 	 7.93008 	 13.1814 	 
H 	 -150.422 	 7.61444 	 12.1952 	 
H 	 -150.474 	 8.87736 	 13.3958 	 
H 	 -150.551 	 7.30335 	 13.8461 	 
H 	 -146.614 	 2.27694 	 15.1393 	 
H 	 -143.751 	 10.1627 	 14.9623 	 
