34

S 	 -120.05 	 63.5952 	 -51.8315 	 
C 	 -119.119 	 63.9451 	 -50.2665 	 
C 	 -119.868 	 64.4458 	 -49.2632 	 
C 	 -121.239 	 64.6107 	 -49.6799 	 
C 	 -121.489 	 64.2458 	 -50.9973 	 
H 	 -121.941 	 65.143 	 -49.1898 	 
C 	 -119.354 	 64.9107 	 -47.9034 	 
H 	 -118.513 	 64.2385 	 -47.7743 	 
H 	 -120.097 	 64.5921 	 -47.086 	 
C 	 -118.867 	 66.4116 	 -47.9058 	 
H 	 -118.223 	 66.4211 	 -46.9914 	 
H 	 -118.212 	 66.6155 	 -48.7807 	 
C 	 -120.042 	 67.3818 	 -47.7943 	 
H 	 -119.7 	 68.3996 	 -47.7185 	 
H 	 -120.59 	 67.4957 	 -48.7379 	 
H 	 -120.694 	 67.2152 	 -46.8747 	 
S 	 -122.736 	 64.9121 	 -53.4142 	 
C 	 -124.425 	 64.9011 	 -53.4953 	 
C 	 -125.087 	 64.4828 	 -52.3334 	 
C 	 -124.146 	 64.3201 	 -51.2645 	 
C 	 -122.797 	 64.4339 	 -51.7014 	 
H 	 -126.145 	 64.2138 	 -52.3719 	 
C 	 -124.68 	 63.9064 	 -49.9009 	 
H 	 -123.984 	 63.1949 	 -49.3121 	 
H 	 -125.677 	 63.5035 	 -50.1075 	 
C 	 -124.975 	 65.0968 	 -48.9381 	 
H 	 -125.762 	 65.7355 	 -49.3888 	 
H 	 -124.157 	 65.8226 	 -48.917 	 
C 	 -125.425 	 64.6879 	 -47.5227 	 
H 	 -126.314 	 64.113 	 -47.7383 	 
H 	 -125.896 	 65.4212 	 -46.93 	 
H 	 -124.747 	 64.1284 	 -46.9391 	 
H 	 -118.009 	 63.8732 	 -50.1396 	 
H 	 -125.03 	 65.0284 	 -54.3661 	 
