34

S 	 -37.0077 	 -2.74736 	 5.3231 	 
C 	 -38.0748 	 -3.01625 	 6.69992 	 
C 	 -38.933 	 -4.06131 	 6.48313 	 
C 	 -38.7752 	 -4.54765 	 5.16325 	 
C 	 -37.7746 	 -3.94411 	 4.40694 	 
H 	 -39.2109 	 -5.45122 	 4.75587 	 
C 	 -39.8452 	 -4.76428 	 7.4718 	 
H 	 -39.6616 	 -4.26947 	 8.43372 	 
H 	 -39.7202 	 -5.9406 	 7.61494 	 
C 	 -41.3862 	 -4.49519 	 7.43115 	 
H 	 -41.8026 	 -4.55574 	 6.39186 	 
H 	 -41.8679 	 -5.43489 	 7.82161 	 
C 	 -41.9889 	 -3.12346 	 7.91609 	 
H 	 -43.0774 	 -3.24254 	 8.11197 	 
H 	 -41.5602 	 -2.96187 	 8.91599 	 
H 	 -41.8361 	 -2.31408 	 7.12031 	 
S 	 -35.7284 	 -5.28335 	 3.26324 	 
C 	 -35.9193 	 -5.70203 	 1.54433 	 
C 	 -37.1069 	 -5.25324 	 0.968571 	 
C 	 -37.8868 	 -4.51001 	 1.9592 	 
C 	 -37.2462 	 -4.44216 	 3.16399 	 
H 	 -37.2183 	 -5.27791 	 -0.136247 	 
C 	 -39.2287 	 -3.81246 	 1.6235 	 
H 	 -39.2721 	 -3.70317 	 0.549171 	 
H 	 -39.1464 	 -2.74941 	 1.7919 	 
C 	 -40.5535 	 -4.36193 	 2.169 	 
H 	 -40.638 	 -4.04684 	 3.19862 	 
H 	 -40.5453 	 -5.44856 	 2.04579 	 
C 	 -41.7266 	 -3.71142 	 1.44591 	 
H 	 -41.755 	 -3.95224 	 0.403341 	 
H 	 -41.6977 	 -2.64072 	 1.46616 	 
H 	 -42.6535 	 -4.10745 	 1.90726 	 
H 	 -37.913 	 -2.51665 	 7.68727 	 
H 	 -35.1395 	 -6.16404 	 1.03512 	 
