34

S 	 -144.674 	 9.08209 	 2.49655 	 
C 	 -143.511 	 10.3945 	 2.33428 	 
C 	 -142.422 	 10.1395 	 1.53606 	 
C 	 -142.453 	 8.76434 	 1.05785 	 
C 	 -143.599 	 8.1038 	 1.4564 	 
H 	 -141.755 	 8.23312 	 0.457873 	 
C 	 -141.348 	 11.0803 	 1.09227 	 
H 	 -140.481 	 10.476 	 0.948368 	 
H 	 -141.153 	 11.7168 	 1.98141 	 
C 	 -141.593 	 11.8637 	 -0.191457 	 
H 	 -141.355 	 11.2928 	 -1.10791 	 
H 	 -142.655 	 12.0903 	 -0.358405 	 
C 	 -140.783 	 13.1161 	 -0.326316 	 
H 	 -141.003 	 13.5285 	 -1.28408 	 
H 	 -141.068 	 13.7836 	 0.518218 	 
H 	 -139.746 	 12.8806 	 -0.373919 	 
S 	 -144.578 	 5.67003 	 2.25694 	 
C 	 -145.109 	 4.55207 	 1.09417 	 
C 	 -144.71 	 4.90624 	 -0.192094 	 
C 	 -143.977 	 6.18098 	 -0.232733 	 
C 	 -144.091 	 6.80658 	 0.972364 	 
H 	 -144.952 	 4.36823 	 -1.11642 	 
C 	 -143.381 	 6.70249 	 -1.56768 	 
H 	 -142.407 	 6.16112 	 -1.60647 	 
H 	 -143.314 	 7.79144 	 -1.53311 	 
C 	 -144.016 	 6.35814 	 -2.97133 	 
H 	 -145.093 	 6.29085 	 -2.97845 	 
H 	 -143.834 	 5.30825 	 -3.22737 	 
C 	 -143.538 	 7.30496 	 -4.09126 	 
H 	 -142.439 	 7.22464 	 -4.14637 	 
H 	 -143.844 	 8.42 	 -3.82618 	 
H 	 -143.901 	 7.06087 	 -5.05545 	 
H 	 -143.701 	 11.366 	 2.73594 	 
H 	 -145.757 	 3.70502 	 1.27612 	 
