34

S 	 -110.226 	 19.5086 	 -121.914 	 
C 	 -111.832 	 18.9284 	 -121.574 	 
C 	 -112.299 	 18.1192 	 -122.568 	 
C 	 -111.263 	 17.8784 	 -123.569 	 
C 	 -110.083 	 18.5669 	 -123.342 	 
H 	 -111.275 	 17.2722 	 -124.431 	 
C 	 -113.698 	 17.5609 	 -122.713 	 
H 	 -113.663 	 16.8677 	 -123.592 	 
H 	 -114.371 	 18.3853 	 -123.058 	 
C 	 -114.199 	 16.8248 	 -121.458 	 
H 	 -114.077 	 17.4283 	 -120.56 	 
H 	 -115.241 	 16.5505 	 -121.458 	 
C 	 -113.365 	 15.5489 	 -121.144 	 
H 	 -113.213 	 14.8453 	 -122.023 	 
H 	 -112.332 	 15.6551 	 -120.845 	 
H 	 -113.859 	 14.933 	 -120.447 	 
S 	 -107.485 	 17.8107 	 -123.165 	 
C 	 -106.475 	 17.9505 	 -124.531 	 
C 	 -107.083 	 18.4002 	 -125.635 	 
C 	 -108.48 	 18.6422 	 -125.429 	 
C 	 -108.81 	 18.4859 	 -124.07 	 
H 	 -106.516 	 18.4939 	 -126.504 	 
C 	 -109.463 	 19.1195 	 -126.497 	 
H 	 -109.38 	 20.1824 	 -126.709 	 
H 	 -110.45 	 18.8842 	 -126.058 	 
C 	 -109.269 	 18.2567 	 -127.724 	 
H 	 -109.442 	 17.1883 	 -127.365 	 
H 	 -108.278 	 18.4342 	 -128.06 	 
C 	 -110.194 	 18.436 	 -128.953 	 
H 	 -111.201 	 18.2489 	 -128.67 	 
H 	 -109.838 	 17.82 	 -129.789 	 
H 	 -110.276 	 19.4551 	 -129.435 	 
H 	 -112.324 	 19.0919 	 -120.707 	 
H 	 -105.422 	 17.6973 	 -124.479 	 
