34

S 	 -133.232 	 58.5652 	 -63.9925 	 
C 	 -133.704 	 59.7948 	 -65.1491 	 
C 	 -133.816 	 59.2961 	 -66.4365 	 
C 	 -133.553 	 57.9094 	 -66.4295 	 
C 	 -133.351 	 57.2761 	 -65.2306 	 
H 	 -133.589 	 57.2401 	 -67.3116 	 
C 	 -134.102 	 60.056 	 -67.7089 	 
H 	 -134.697 	 61.0016 	 -67.5278 	 
H 	 -134.708 	 59.4099 	 -68.3422 	 
C 	 -132.84 	 60.5299 	 -68.5604 	 
H 	 -132.178 	 61.2049 	 -67.9419 	 
H 	 -132.192 	 59.7069 	 -68.8733 	 
C 	 -133.149 	 61.3114 	 -69.8984 	 
H 	 -133.776 	 62.21 	 -69.7443 	 
H 	 -132.165 	 61.5399 	 -70.3445 	 
H 	 -133.715 	 60.7528 	 -70.6837 	 
S 	 -134.657 	 55.1024 	 -64.1328 	 
C 	 -133.743 	 53.6103 	 -63.8902 	 
C 	 -132.466 	 53.6996 	 -64.4085 	 
C 	 -132.229 	 54.9271 	 -65.0588 	 
C 	 -133.273 	 55.8646 	 -64.8633 	 
H 	 -131.79 	 52.8461 	 -64.3077 	 
C 	 -130.997 	 55.1384 	 -65.9679 	 
H 	 -131.03 	 56.1496 	 -66.219 	 
H 	 -131.2 	 54.6569 	 -66.881 	 
C 	 -129.667 	 54.8815 	 -65.2741 	 
H 	 -129.699 	 53.8681 	 -64.8836 	 
H 	 -129.567 	 55.5586 	 -64.3545 	 
C 	 -128.502 	 55.0297 	 -66.2779 	 
H 	 -128.544 	 55.9099 	 -66.9372 	 
H 	 -128.308 	 54.145 	 -66.8438 	 
H 	 -127.593 	 55.2603 	 -65.6675 	 
H 	 -133.796 	 60.809 	 -64.9361 	 
H 	 -134.021 	 52.8112 	 -63.2443 	 
