34

S 	 -37.4003 	 -8.42704 	 9.3916 	 
C 	 -35.9012 	 -8.21066 	 10.3003 	 
C 	 -36.0892 	 -7.48922 	 11.4609 	 
C 	 -37.4251 	 -7.11777 	 11.6333 	 
C 	 -38.1898 	 -7.28208 	 10.4793 	 
H 	 -37.9012 	 -6.49181 	 12.2856 	 
C 	 -35.0459 	 -7.28262 	 12.4596 	 
H 	 -34.1279 	 -7.79178 	 12.1202 	 
H 	 -35.3613 	 -7.63557 	 13.4754 	 
C 	 -34.5097 	 -5.85296 	 12.559 	 
H 	 -33.8021 	 -5.76565 	 13.3823 	 
H 	 -33.9796 	 -5.68743 	 11.5945 	 
C 	 -35.4282 	 -4.6858 	 12.7047 	 
H 	 -36.1051 	 -4.44794 	 11.8875 	 
H 	 -36.0731 	 -4.90776 	 13.4974 	 
H 	 -34.8115 	 -3.80697 	 12.8652 	 
S 	 -40.7528 	 -8.12736 	 9.71547 	 
C 	 -42.1169 	 -7.01985 	 9.77184 	 
C 	 -41.7071 	 -5.75405 	 10.1691 	 
C 	 -40.3157 	 -5.69469 	 10.423 	 
C 	 -39.5759 	 -6.85054 	 10.1652 	 
H 	 -42.4707 	 -4.99821 	 10.3028 	 
C 	 -39.5653 	 -4.44496 	 10.9573 	 
H 	 -38.959 	 -4.85054 	 11.8443 	 
H 	 -40.2411 	 -3.78239 	 11.5278 	 
C 	 -38.865 	 -3.64714 	 9.93206 	 
H 	 -39.5069 	 -3.47785 	 9.08964 	 
H 	 -37.9771 	 -4.19616 	 9.51915 	 
C 	 -38.3121 	 -2.38633 	 10.4621 	 
H 	 -38.9725 	 -1.71561 	 10.9926 	 
H 	 -37.7532 	 -1.89786 	 9.63016 	 
H 	 -37.5842 	 -2.60222 	 11.209 	 
H 	 -35.0005 	 -8.59479 	 9.92805 	 
H 	 -43.1847 	 -7.23251 	 9.59249 	 
