34

S 	 -29.2474 	 18.8653 	 12.6083 	 
C 	 -29.07 	 19.973 	 11.2827 	 
C 	 -29.5573 	 19.4438 	 10.1088 	 
C 	 -30.0015 	 18.1052 	 10.24 	 
C 	 -29.923 	 17.6132 	 11.5103 	 
H 	 -30.2636 	 17.4206 	 9.39312 	 
C 	 -29.706 	 20.2482 	 8.83449 	 
H 	 -30.6854 	 20.6392 	 8.78119 	 
H 	 -29.7018 	 19.5359 	 8.01793 	 
C 	 -28.5945 	 21.2713 	 8.65114 	 
H 	 -28.6539 	 22.0178 	 9.44168 	 
H 	 -27.634 	 20.8389 	 8.79855 	 
C 	 -28.4736 	 21.8359 	 7.18418 	 
H 	 -27.7579 	 22.6104 	 7.05087 	 
H 	 -28.1895 	 21.0463 	 6.46605 	 
H 	 -29.3411 	 22.3007 	 6.79207 	 
S 	 -28.8063 	 15.6659 	 12.905 	 
C 	 -29.5358 	 14.0803 	 12.873 	 
C 	 -30.629 	 14.0423 	 12.0153 	 
C 	 -30.9831 	 15.2988 	 11.4923 	 
C 	 -30.0691 	 16.2616 	 11.8786 	 
H 	 -31.1997 	 13.1491 	 11.8378 	 
C 	 -32.2459 	 15.4643 	 10.7431 	 
H 	 -32.4184 	 14.6222 	 10.1185 	 
H 	 -32.2232 	 16.3271 	 10.1392 	 
C 	 -33.5598 	 15.4977 	 11.5935 	 
H 	 -33.5378 	 14.6972 	 12.377 	 
H 	 -34.3699 	 15.2604 	 10.9422 	 
C 	 -33.8609 	 16.8553 	 12.1907 	 
H 	 -33.807 	 17.6418 	 11.4691 	 
H 	 -33.1183 	 16.9641 	 13.0043 	 
H 	 -34.9064 	 16.9212 	 12.6205 	 
H 	 -28.8234 	 21.0443 	 11.4414 	 
H 	 -29.0395 	 13.129 	 13.2779 	 
