34

S 	 -103.892 	 61.6359 	 -8.95188 	 
C 	 -104.886 	 63.0714 	 -8.70344 	 
C 	 -104.701 	 64.0028 	 -9.74666 	 
C 	 -103.844 	 63.5152 	 -10.795 	 
C 	 -103.348 	 62.2313 	 -10.4938 	 
H 	 -103.641 	 63.9716 	 -11.7686 	 
C 	 -105.315 	 65.3677 	 -9.88019 	 
H 	 -104.388 	 65.9437 	 -9.90098 	 
H 	 -105.884 	 65.6627 	 -8.95522 	 
C 	 -106.181 	 65.5579 	 -11.1506 	 
H 	 -105.771 	 65.0514 	 -12.0311 	 
H 	 -107.214 	 65.1599 	 -11.0617 	 
C 	 -106.288 	 67.0335 	 -11.4698 	 
H 	 -105.243 	 67.3181 	 -11.5938 	 
H 	 -106.773 	 67.1465 	 -12.4658 	 
H 	 -106.728 	 67.7702 	 -10.7675 	 
S 	 -103.264 	 59.8354 	 -11.6856 	 
C 	 -102.202 	 59.545 	 -12.9584 	 
C 	 -101.462 	 60.6351 	 -13.2384 	 
C 	 -101.543 	 61.6894 	 -12.2791 	 
C 	 -102.532 	 61.3957 	 -11.3657 	 
H 	 -100.918 	 60.572 	 -14.0826 	 
C 	 -100.863 	 62.975 	 -12.5228 	 
H 	 -101.446 	 63.7061 	 -11.9908 	 
H 	 -101.162 	 63.0433 	 -13.5925 	 
C 	 -99.3032 	 62.9998 	 -12.3021 	 
H 	 -98.901 	 64.0149 	 -12.6497 	 
H 	 -98.7845 	 62.2159 	 -12.8332 	 
C 	 -99.0749 	 62.861 	 -10.7524 	 
H 	 -99.4879 	 61.9471 	 -10.31 	 
H 	 -99.6526 	 63.742 	 -10.3139 	 
H 	 -98.0557 	 62.9002 	 -10.3932 	 
H 	 -105.427 	 63.3886 	 -7.78998 	 
H 	 -102.248 	 58.7705 	 -13.6267 	 
