34

S 	 -43.8996 	 -48.7271 	 -79.6953 	 
C 	 -42.2003 	 -49.099 	 -79.9515 	 
C 	 -41.4844 	 -49.1378 	 -78.7418 	 
C 	 -42.3903 	 -48.9648 	 -77.613 	 
C 	 -43.7208 	 -48.7098 	 -77.9566 	 
H 	 -42.1693 	 -49.0388 	 -76.5614 	 
C 	 -39.9839 	 -49.2886 	 -78.6449 	 
H 	 -39.7681 	 -50.2691 	 -79.0865 	 
H 	 -39.7234 	 -49.567 	 -77.611 	 
C 	 -39.0418 	 -48.2977 	 -79.38 	 
H 	 -39.5004 	 -48.0924 	 -80.3229 	 
H 	 -39.0449 	 -47.3886 	 -78.8698 	 
C 	 -37.6317 	 -48.8601 	 -79.5983 	 
H 	 -37.6488 	 -49.8483 	 -80.0927 	 
H 	 -37.0971 	 -48.2058 	 -80.2809 	 
H 	 -37.1903 	 -48.8377 	 -78.6048 	 
S 	 -45.7593 	 -46.98 	 -77.3916 	 
C 	 -47.0443 	 -47.4542 	 -76.283 	 
C 	 -46.6449 	 -48.6116 	 -75.6182 	 
C 	 -45.4073 	 -49.1804 	 -76.0625 	 
C 	 -44.8421 	 -48.4432 	 -77.0677 	 
H 	 -47.2952 	 -48.9922 	 -74.8191 	 
C 	 -44.9852 	 -50.6059 	 -75.6735 	 
H 	 -45.4623 	 -50.912 	 -74.7719 	 
H 	 -43.9577 	 -50.5154 	 -75.3094 	 
C 	 -45.1979 	 -51.6073 	 -76.7961 	 
H 	 -44.6921 	 -52.5757 	 -76.5086 	 
H 	 -44.7551 	 -51.2866 	 -77.7289 	 
C 	 -46.7402 	 -51.7821 	 -77.1436 	 
H 	 -47.2812 	 -51.6916 	 -76.2269 	 
H 	 -46.9379 	 -52.8721 	 -77.3697 	 
H 	 -47.1363 	 -51.1686 	 -77.9153 	 
H 	 -41.695 	 -49.2298 	 -80.8812 	 
H 	 -47.9412 	 -46.8105 	 -75.985 	 
