34

S 	 -105.294 	 0.883529 	 -105.633 	 
C 	 -104.575 	 1.71435 	 -104.191 	 
C 	 -103.249 	 1.80857 	 -104.303 	 
C 	 -102.786 	 1.40031 	 -105.535 	 
C 	 -103.744 	 0.87635 	 -106.398 	 
H 	 -101.738 	 1.34967 	 -105.74 	 
C 	 -102.263 	 2.22094 	 -103.19 	 
H 	 -101.252 	 2.43033 	 -103.465 	 
H 	 -102.284 	 1.4116 	 -102.453 	 
C 	 -102.791 	 3.51945 	 -102.546 	 
H 	 -102.924 	 4.19234 	 -103.358 	 
H 	 -103.831 	 3.29583 	 -102.123 	 
C 	 -101.804 	 3.98649 	 -101.436 	 
H 	 -102.306 	 4.72316 	 -100.941 	 
H 	 -101.51 	 3.1848 	 -100.821 	 
H 	 -100.917 	 4.5197 	 -101.808 	 
S 	 -104.351 	 -1.16762 	 -108.043 	 
C 	 -103.525 	 -1.34814 	 -109.568 	 
C 	 -102.379 	 -0.577377 	 -109.597 	 
C 	 -102.381 	 0.374547 	 -108.526 	 
C 	 -103.465 	 0.208526 	 -107.657 	 
H 	 -101.634 	 -0.638193 	 -110.377 	 
C 	 -101.427 	 1.52411 	 -108.583 	 
H 	 -101.736 	 2.29177 	 -107.801 	 
H 	 -101.723 	 1.9963 	 -109.545 	 
C 	 -99.9137 	 1.28728 	 -108.397 	 
H 	 -99.6254 	 0.409913 	 -108.957 	 
H 	 -99.6912 	 1.03335 	 -107.373 	 
C 	 -99.0074 	 2.44442 	 -108.805 	 
H 	 -99.1116 	 3.31698 	 -108.099 	 
H 	 -99.1264 	 2.78722 	 -109.839 	 
H 	 -97.9994 	 2.14244 	 -108.656 	 
H 	 -105.1 	 1.70246 	 -103.258 	 
H 	 -103.7 	 -1.98146 	 -110.481 	 
