34

S 	 -107.393 	 0.595538 	 -107.944 	 
C 	 -107.592 	 1.96361 	 -109.037 	 
C 	 -107.16 	 3.13281 	 -108.385 	 
C 	 -106.878 	 2.92109 	 -107.004 	 
C 	 -106.902 	 1.60933 	 -106.63 	 
H 	 -106.55 	 3.68935 	 -106.306 	 
C 	 -107.269 	 4.57883 	 -109.008 	 
H 	 -106.631 	 5.35166 	 -108.593 	 
H 	 -108.354 	 4.83883 	 -108.847 	 
C 	 -106.943 	 4.67688 	 -110.48 	 
H 	 -105.88 	 4.58138 	 -110.546 	 
H 	 -107.496 	 4.01725 	 -111.063 	 
C 	 -107.218 	 6.01575 	 -111.157 	 
H 	 -106.505 	 6.79094 	 -110.832 	 
H 	 -107.232 	 6.06227 	 -112.234 	 
H 	 -108.174 	 6.37968 	 -110.724 	 
S 	 -105.241 	 0.00719232 	 -105.215 	 
C 	 -105.439 	 -0.0790521 	 -103.441 	 
C 	 -106.401 	 0.798372 	 -102.985 	 
C 	 -107.079 	 1.48425 	 -104 	 
C 	 -106.62 	 1.08293 	 -105.319 	 
H 	 -106.762 	 0.905972 	 -101.964 	 
C 	 -108.129 	 2.58641 	 -103.795 	 
H 	 -108.304 	 3.19966 	 -104.679 	 
H 	 -107.704 	 3.24541 	 -103.059 	 
C 	 -109.503 	 2.1528 	 -103.363 	 
H 	 -110.082 	 2.96238 	 -102.955 	 
H 	 -109.398 	 1.41062 	 -102.584 	 
C 	 -110.265 	 1.38218 	 -104.486 	 
H 	 -111.21 	 1.13329 	 -104.047 	 
H 	 -109.683 	 0.464879 	 -104.899 	 
H 	 -110.569 	 2.04074 	 -105.231 	 
H 	 -108.041 	 1.93793 	 -109.959 	 
H 	 -104.734 	 -0.68015 	 -102.782 	 
