34

S 	 -33.4577 	 -30.2781 	 -94.2952 	 
C 	 -33.5368 	 -28.9605 	 -95.4246 	 
C 	 -32.3066 	 -28.7828 	 -96.006 	 
C 	 -31.3532 	 -29.8365 	 -95.67 	 
C 	 -31.8311 	 -30.6351 	 -94.6708 	 
H 	 -30.3986 	 -30.0545 	 -96.0884 	 
C 	 -31.8923 	 -27.676 	 -96.9459 	 
H 	 -30.9273 	 -27.8574 	 -97.427 	 
H 	 -31.6744 	 -26.8067 	 -96.327 	 
C 	 -32.9692 	 -27.216 	 -97.9834 	 
H 	 -33.7856 	 -26.7643 	 -97.3975 	 
H 	 -32.5538 	 -26.4192 	 -98.5677 	 
C 	 -33.4055 	 -28.2965 	 -98.9428 	 
H 	 -33.8923 	 -29.0974 	 -98.4241 	 
H 	 -34.1884 	 -27.7945 	 -99.5929 	 
H 	 -32.6103 	 -28.6719 	 -99.603 	 
S 	 -31.9676 	 -33.3998 	 -94.5773 	 
C 	 -31.0762 	 -34.1669 	 -93.2902 	 
C 	 -30.1526 	 -33.3507 	 -92.6641 	 
C 	 -30.3402 	 -32.0083 	 -93.0938 	 
C 	 -31.2686 	 -31.8673 	 -94.1449 	 
H 	 -29.6104 	 -33.6367 	 -91.7696 	 
C 	 -29.571 	 -30.9046 	 -92.3969 	 
H 	 -29.6372 	 -31.2048 	 -91.3767 	 
H 	 -30.0903 	 -29.9582 	 -92.5133 	 
C 	 -28.0984 	 -30.6003 	 -92.8177 	 
H 	 -28.0556 	 -30.2005 	 -93.7903 	 
H 	 -27.6022 	 -31.4869 	 -92.9249 	 
C 	 -27.373 	 -29.6711 	 -91.802 	 
H 	 -27.5503 	 -29.6897 	 -90.6927 	 
H 	 -27.492 	 -28.7 	 -92.2191 	 
H 	 -26.2477 	 -29.9118 	 -91.8356 	 
H 	 -34.3924 	 -28.3088 	 -95.5636 	 
H 	 -31.3305 	 -35.13 	 -93.0123 	 
