34

S 	 -75.7448 	 1.06462 	 -59.5957 	 
C 	 -77.0566 	 1.44937 	 -58.5405 	 
C 	 -78.0045 	 0.505725 	 -58.5631 	 
C 	 -77.6314 	 -0.608193 	 -59.5036 	 
C 	 -76.3764 	 -0.473778 	 -60.0528 	 
H 	 -78.2723 	 -1.39047 	 -59.6808 	 
C 	 -79.2781 	 0.421595 	 -57.7587 	 
H 	 -79.0685 	 0.139696 	 -56.7108 	 
H 	 -79.6264 	 -0.555817 	 -58.1046 	 
C 	 -80.2062 	 1.59677 	 -57.8787 	 
H 	 -79.7166 	 2.47074 	 -57.4589 	 
H 	 -80.4213 	 1.8422 	 -58.9547 	 
C 	 -81.6175 	 1.48316 	 -57.2557 	 
H 	 -81.6116 	 1.28671 	 -56.2104 	 
H 	 -82.1567 	 2.43419 	 -57.4998 	 
H 	 -82.1168 	 0.65668 	 -57.6673 	 
S 	 -75.6026 	 -0.66508 	 -62.6477 	 
C 	 -74.8441 	 -2.14108 	 -63.2002 	 
C 	 -74.8064 	 -3.10394 	 -62.2282 	 
C 	 -75.3952 	 -2.69514 	 -61.0252 	 
C 	 -75.811 	 -1.37024 	 -61.0293 	 
H 	 -74.5646 	 -4.17085 	 -62.3678 	 
C 	 -75.4289 	 -3.60115 	 -59.8468 	 
H 	 -75.6974 	 -4.63103 	 -60.0514 	 
H 	 -76.2773 	 -3.3404 	 -59.2752 	 
C 	 -74.1699 	 -3.48239 	 -58.9371 	 
H 	 -74.0093 	 -2.45791 	 -58.4598 	 
H 	 -73.2422 	 -3.83809 	 -59.4614 	 
C 	 -74.3385 	 -4.4678 	 -57.7507 	 
H 	 -75.3068 	 -4.30695 	 -57.1569 	 
H 	 -73.5063 	 -4.32199 	 -57.1024 	 
H 	 -74.3917 	 -5.49575 	 -58.1185 	 
H 	 -77.099 	 2.32041 	 -57.8709 	 
H 	 -74.649 	 -2.39507 	 -64.2447 	 
