34

S 	 -97.1217 	 -24.5987 	 -65.5827 	 
C 	 -96.8813 	 -22.8859 	 -65.5569 	 
C 	 -95.7924 	 -22.4768 	 -64.8241 	 
C 	 -95.1576 	 -23.5922 	 -64.1881 	 
C 	 -95.7009 	 -24.786 	 -64.6212 	 
H 	 -94.4277 	 -23.6632 	 -63.4069 	 
C 	 -95.4117 	 -21.0339 	 -64.4129 	 
H 	 -95.3818 	 -20.5176 	 -65.3483 	 
H 	 -94.3741 	 -20.8686 	 -64.0066 	 
C 	 -96.3713 	 -20.2811 	 -63.4506 	 
H 	 -96.0005 	 -19.3025 	 -63.2561 	 
H 	 -97.3856 	 -20.0787 	 -63.7294 	 
C 	 -96.3822 	 -21.0298 	 -62.0774 	 
H 	 -95.413 	 -21.0546 	 -61.6439 	 
H 	 -97.0207 	 -20.5967 	 -61.3629 	 
H 	 -96.8639 	 -22.0429 	 -62.1855 	 
S 	 -94.2734 	 -27.142 	 -64.948 	 
C 	 -93.9449 	 -28.085 	 -63.4904 	 
C 	 -94.7111 	 -27.6718 	 -62.4454 	 
C 	 -95.519 	 -26.5135 	 -62.6726 	 
C 	 -95.3367 	 -26.0726 	 -63.9914 	 
H 	 -94.6054 	 -28.3004 	 -61.5122 	 
C 	 -96.5606 	 -26.0294 	 -61.7649 	 
H 	 -97.4467 	 -26.4024 	 -62.2112 	 
H 	 -96.739 	 -24.9681 	 -62.0023 	 
C 	 -96.508 	 -26.3643 	 -60.2574 	 
H 	 -95.5599 	 -26.3094 	 -59.8297 	 
H 	 -96.7663 	 -27.4638 	 -60.1508 	 
C 	 -97.4662 	 -25.5474 	 -59.3414 	 
H 	 -97.0518 	 -24.6363 	 -59.1275 	 
H 	 -97.7456 	 -26.055 	 -58.4069 	 
H 	 -98.3569 	 -25.3256 	 -59.9318 	 
H 	 -97.5892 	 -22.214 	 -65.8563 	 
H 	 -93.2564 	 -28.9445 	 -63.4025 	 
