34

S 	 -123.328 	 32.2191 	 -114.504 	 
C 	 -121.58 	 32.5735 	 -114.743 	 
C 	 -120.913 	 32.5329 	 -113.546 	 
C 	 -121.802 	 32.303 	 -112.391 	 
C 	 -123.169 	 32.2493 	 -112.73 	 
H 	 -121.51 	 32.1868 	 -111.339 	 
C 	 -119.44 	 32.5135 	 -113.382 	 
H 	 -119.241 	 32.9115 	 -112.394 	 
H 	 -118.949 	 33.2307 	 -114.025 	 
C 	 -118.802 	 31.2135 	 -113.73 	 
H 	 -119.137 	 31.011 	 -114.713 	 
H 	 -117.687 	 31.2781 	 -113.814 	 
C 	 -119.191 	 30.0301 	 -112.778 	 
H 	 -118.9 	 30.1311 	 -111.747 	 
H 	 -120.198 	 29.9912 	 -112.716 	 
H 	 -118.827 	 29.0344 	 -113.083 	 
S 	 -125.249 	 30.483 	 -112.191 	 
C 	 -126.405 	 31.0093 	 -110.921 	 
C 	 -125.92 	 32.1566 	 -110.244 	 
C 	 -124.778 	 32.6987 	 -110.873 	 
C 	 -124.258 	 31.9195 	 -111.846 	 
H 	 -126.532 	 32.447 	 -109.457 	 
C 	 -124.314 	 34.0966 	 -110.59 	 
H 	 -125.13 	 34.6295 	 -110.226 	 
H 	 -124.077 	 34.56 	 -111.533 	 
C 	 -123.066 	 34.3875 	 -109.727 	 
H 	 -122.93 	 35.4835 	 -109.565 	 
H 	 -122.079 	 34.0756 	 -110.234 	 
C 	 -123.021 	 33.6096 	 -108.384 	 
H 	 -122.219 	 33.9956 	 -107.748 	 
H 	 -122.871 	 32.5389 	 -108.547 	 
H 	 -123.983 	 33.7098 	 -107.892 	 
H 	 -121.126 	 32.5696 	 -115.663 	 
H 	 -127.163 	 30.4064 	 -110.446 	 
