34

S 	 -42.1879 	 19.9184 	 -97.7301 	 
C 	 -43.3189 	 20.512 	 -96.5258 	 
C 	 -44.585 	 20.1441 	 -96.8318 	 
C 	 -44.5996 	 19.2249 	 -97.9372 	 
C 	 -43.422 	 18.9538 	 -98.5773 	 
H 	 -45.4564 	 18.5944 	 -98.2305 	 
C 	 -45.8312 	 20.5912 	 -96.0826 	 
H 	 -46.7791 	 20.7019 	 -96.6399 	 
H 	 -45.7665 	 21.6607 	 -95.9549 	 
C 	 -46.2247 	 20.1082 	 -94.6762 	 
H 	 -45.3248 	 20.0549 	 -94.0328 	 
H 	 -46.6927 	 20.8548 	 -94.106 	 
C 	 -47.1031 	 18.8337 	 -94.6388 	 
H 	 -48.1208 	 18.976 	 -95.1155 	 
H 	 -46.5414 	 18.0785 	 -95.2176 	 
H 	 -47.2537 	 18.4928 	 -93.6212 	 
S 	 -42.2347 	 18.3711 	 -100.91 	 
C 	 -42.0962 	 16.7237 	 -101.49 	 
C 	 -42.7316 	 15.8463 	 -100.683 	 
C 	 -43.3559 	 16.4767 	 -99.5318 	 
C 	 -43.1301 	 17.8568 	 -99.5168 	 
H 	 -42.7611 	 14.7778 	 -100.957 	 
C 	 -43.9981 	 15.5994 	 -98.4334 	 
H 	 -44.5865 	 14.7509 	 -98.8291 	 
H 	 -44.7795 	 16.121 	 -97.8253 	 
C 	 -43.0947 	 15.1063 	 -97.3186 	 
H 	 -42.3649 	 14.3957 	 -97.7823 	 
H 	 -43.7063 	 14.5135 	 -96.6307 	 
C 	 -42.2839 	 16.2778 	 -96.6763 	 
H 	 -41.578 	 15.954 	 -95.8593 	 
H 	 -42.9016 	 17.0526 	 -96.2479 	 
H 	 -41.7012 	 16.7849 	 -97.4836 	 
H 	 -42.9762 	 21.1856 	 -95.722 	 
H 	 -41.6308 	 16.3811 	 -102.403 	 
