34

S 	 -53.5637 	 11.0858 	 -103.438 	 
C 	 -55.0382 	 10.9607 	 -104.354 	 
C 	 -55.9094 	 12.0052 	 -104.211 	 
C 	 -55.3833 	 12.94 	 -103.259 	 
C 	 -54.1084 	 12.6143 	 -102.816 	 
H 	 -55.7668 	 13.8966 	 -102.992 	 
C 	 -57.1769 	 12.2412 	 -105.006 	 
H 	 -57.156 	 11.6283 	 -105.932 	 
H 	 -57.1648 	 13.327 	 -105.302 	 
C 	 -58.5461 	 11.7794 	 -104.297 	 
H 	 -58.3862 	 10.6994 	 -104.131 	 
H 	 -58.5531 	 12.2242 	 -103.307 	 
C 	 -59.7985 	 11.9027 	 -105.161 	 
H 	 -60.6222 	 11.4637 	 -104.684 	 
H 	 -60.1127 	 13.0104 	 -105.264 	 
H 	 -59.6785 	 11.4123 	 -106.126 	 
S 	 -53.0272 	 12.1023 	 -100.385 	 
C 	 -52.4595 	 13.3765 	 -99.3569 	 
C 	 -52.4777 	 14.5778 	 -100.023 	 
C 	 -53.1019 	 14.4759 	 -101.265 	 
C 	 -53.4754 	 13.2409 	 -101.676 	 
H 	 -51.9816 	 15.4579 	 -99.534 	 
C 	 -53.4395 	 15.6845 	 -102.133 	 
H 	 -53.4778 	 15.3173 	 -103.188 	 
H 	 -52.5803 	 16.2555 	 -101.922 	 
C 	 -54.7092 	 16.4809 	 -101.82 	 
H 	 -54.8416 	 16.5276 	 -100.796 	 
H 	 -55.5613 	 15.9533 	 -102.22 	 
C 	 -54.6858 	 17.882 	 -102.493 	 
H 	 -54.0501 	 17.8909 	 -103.359 	 
H 	 -54.4968 	 18.648 	 -101.742 	 
H 	 -55.7296 	 18.1488 	 -102.873 	 
H 	 -55.2193 	 10.0699 	 -104.969 	 
H 	 -52.0301 	 13.2865 	 -98.4243 	 
