34

S 	 -53.8548 	 5.12827 	 -31.4622 	 
C 	 -55.287 	 4.71534 	 -30.4877 	 
C 	 -56.4941 	 4.94907 	 -31.1287 	 
C 	 -56.1903 	 5.40553 	 -32.4659 	 
C 	 -54.8507 	 5.73428 	 -32.7631 	 
H 	 -56.9252 	 5.71598 	 -33.1274 	 
C 	 -57.8875 	 4.74762 	 -30.5917 	 
H 	 -58.6337 	 5.40038 	 -31.1099 	 
H 	 -57.6625 	 5.0573 	 -29.598 	 
C 	 -58.3874 	 3.28904 	 -30.4683 	 
H 	 -58.2025 	 2.8246 	 -31.3657 	 
H 	 -57.7096 	 2.79809 	 -29.7484 	 
C 	 -59.8627 	 3.18881 	 -30.0874 	 
H 	 -60.0683 	 3.77824 	 -29.1838 	 
H 	 -60.4385 	 3.70803 	 -30.8265 	 
H 	 -60.2265 	 2.14312 	 -30.0195 	 
S 	 -53.1937 	 7.72426 	 -33.4938 	 
C 	 -52.9359 	 8.02745 	 -35.2132 	 
C 	 -53.7083 	 7.12574 	 -35.9536 	 
C 	 -54.5647 	 6.29247 	 -35.278 	 
C 	 -54.4016 	 6.52314 	 -33.902 	 
H 	 -53.603 	 7.25444 	 -37.0444 	 
C 	 -55.2023 	 5.0419 	 -35.9243 	 
H 	 -55.6718 	 5.16601 	 -36.9205 	 
H 	 -56.0652 	 4.79087 	 -35.2756 	 
C 	 -54.134 	 3.88594 	 -35.9301 	 
H 	 -54.6641 	 3.00902 	 -36.2284 	 
H 	 -53.7569 	 3.79385 	 -34.9014 	 
C 	 -53.0142 	 4.05134 	 -36.9478 	 
H 	 -52.4891 	 4.95915 	 -36.9856 	 
H 	 -53.3706 	 3.87814 	 -37.9373 	 
H 	 -52.2171 	 3.28056 	 -36.8567 	 
H 	 -55.1129 	 4.25604 	 -29.524 	 
H 	 -52.1915 	 8.65847 	 -35.7496 	 
