34

S 	 0.845416 	 -16.8835 	 -102.831 	 
C 	 2.48173 	 -16.658 	 -102.359 	 
C 	 3.20589 	 -15.8327 	 -103.162 	 
C 	 2.40863 	 -15.2589 	 -104.212 	 
C 	 1.09686 	 -15.792 	 -104.209 	 
H 	 2.70733 	 -14.5905 	 -105.044 	 
C 	 4.71149 	 -15.4734 	 -102.972 	 
H 	 5.27245 	 -16.3578 	 -103.203 	 
H 	 4.89471 	 -15.2872 	 -101.89 	 
C 	 5.36886 	 -14.3292 	 -103.741 	 
H 	 5.40247 	 -14.5007 	 -104.813 	 
H 	 4.76061 	 -13.4214 	 -103.613 	 
C 	 6.74444 	 -14.047 	 -103.182 	 
H 	 6.76055 	 -13.2347 	 -102.418 	 
H 	 7.24668 	 -14.9285 	 -102.816 	 
H 	 7.35806 	 -13.6939 	 -104.006 	 
S 	 -0.831249 	 -16.8384 	 -105.927 	 
C 	 -1.89082 	 -15.7993 	 -106.781 	 
C 	 -1.77815 	 -14.5084 	 -106.295 	 
C 	 -0.605359 	 -14.3557 	 -105.525 	 
C 	 -0.00349236 	 -15.5541 	 -105.159 	 
H 	 -2.31947 	 -13.7324 	 -106.793 	 
C 	 -0.185853 	 -13.0045 	 -105.041 	 
H 	 0.542628 	 -13.2034 	 -104.269 	 
H 	 -0.974271 	 -12.5191 	 -104.453 	 
C 	 0.386009 	 -12.0425 	 -106.126 	 
H 	 -0.463818 	 -11.8315 	 -106.788 	 
H 	 1.17992 	 -12.533 	 -106.824 	 
C 	 0.913044 	 -10.7339 	 -105.607 	 
H 	 1.88315 	 -10.7697 	 -105.223 	 
H 	 0.189428 	 -10.2202 	 -104.852 	 
H 	 0.988524 	 -10.1188 	 -106.483 	 
H 	 2.8991 	 -17.1844 	 -101.527 	 
H 	 -2.53128 	 -16.0471 	 -107.643 	 
