34

S 	 -142.012 	 10.768 	 -11.6381 	 
C 	 -140.35 	 10.3947 	 -11.8344 	 
C 	 -139.868 	 9.39525 	 -11.0299 	 
C 	 -140.897 	 8.96377 	 -10.1298 	 
C 	 -142.047 	 9.68564 	 -10.2466 	 
H 	 -140.744 	 8.19589 	 -9.40686 	 
C 	 -138.432 	 8.94592 	 -11.1998 	 
H 	 -138.316 	 8.34604 	 -12.1029 	 
H 	 -138.136 	 8.22829 	 -10.4601 	 
C 	 -137.338 	 10.0117 	 -11.1689 	 
H 	 -137.775 	 10.9054 	 -11.812 	 
H 	 -137.344 	 10.4688 	 -10.1972 	 
C 	 -135.903 	 9.59168 	 -11.4965 	 
H 	 -135.65 	 8.92218 	 -10.7119 	 
H 	 -135.798 	 9.01915 	 -12.3515 	 
H 	 -135.209 	 10.4545 	 -11.445 	 
S 	 -143.765 	 7.97259 	 -8.92055 	 
C 	 -145.2 	 8.60313 	 -8.1678 	 
C 	 -145.239 	 9.96639 	 -8.20237 	 
C 	 -144.033 	 10.5202 	 -8.8355 	 
C 	 -143.267 	 9.59352 	 -9.37976 	 
H 	 -146.023 	 10.5863 	 -7.81898 	 
C 	 -143.705 	 11.9982 	 -8.73373 	 
H 	 -144.593 	 12.6146 	 -8.93551 	 
H 	 -143.099 	 12.2141 	 -9.59944 	 
C 	 -143.049 	 12.4943 	 -7.44922 	 
H 	 -142.233 	 11.8762 	 -7.26584 	 
H 	 -143.761 	 12.199 	 -6.71399 	 
C 	 -142.805 	 13.9548 	 -7.26965 	 
H 	 -142.628 	 14.1992 	 -6.2199 	 
H 	 -143.664 	 14.512 	 -7.68845 	 
H 	 -141.902 	 14.2802 	 -7.80398 	 
H 	 -139.712 	 10.9937 	 -12.4548 	 
H 	 -145.845 	 7.95184 	 -7.6571 	 
