34

S 	 -105.499 	 51.3447 	 -82.276 	 
C 	 -104.569 	 50.6268 	 -83.6122 	 
C 	 -105.102 	 49.4061 	 -84.054 	 
C 	 -106.347 	 49.1448 	 -83.4638 	 
C 	 -106.741 	 50.1041 	 -82.4674 	 
H 	 -106.932 	 48.301 	 -83.7363 	 
C 	 -104.653 	 48.4247 	 -85.1457 	 
H 	 -104.417 	 48.9393 	 -86.0758 	 
H 	 -105.508 	 47.7204 	 -85.2812 	 
C 	 -103.491 	 47.467 	 -84.6955 	 
H 	 -102.662 	 47.9992 	 -84.2463 	 
H 	 -103.878 	 46.6779 	 -83.9332 	 
C 	 -102.898 	 46.6325 	 -85.8123 	 
H 	 -103.624 	 46.2517 	 -86.6022 	 
H 	 -102.356 	 47.3702 	 -86.446 	 
H 	 -102.201 	 45.8119 	 -85.4958 	 
S 	 -108.702 	 51.637 	 -81.3218 	 
C 	 -110.006 	 50.8136 	 -80.3763 	 
C 	 -109.891 	 49.4604 	 -80.4792 	 
C 	 -108.703 	 49.0238 	 -81.1385 	 
C 	 -107.917 	 50.085 	 -81.5793 	 
H 	 -110.67 	 48.8659 	 -80.0447 	 
C 	 -108.448 	 47.5605 	 -81.3571 	 
H 	 -108.701 	 46.9394 	 -80.4922 	 
H 	 -107.379 	 47.4002 	 -81.5639 	 
C 	 -109.212 	 46.8902 	 -82.5996 	 
H 	 -108.611 	 46.1501 	 -83.0698 	 
H 	 -109.279 	 47.6986 	 -83.3102 	 
C 	 -110.602 	 46.34 	 -82.1906 	 
H 	 -111.157 	 47.2384 	 -81.9421 	 
H 	 -110.56 	 45.6296 	 -81.3866 	 
H 	 -111.112 	 45.8868 	 -83.0001 	 
H 	 -103.551 	 50.8168 	 -83.8796 	 
H 	 -110.802 	 51.2785 	 -79.7484 	 
