34

S 	 -105.925 	 51.0096 	 -97.1412 	 
C 	 -105.654 	 51.4817 	 -95.4173 	 
C 	 -106.734 	 52.1259 	 -94.8664 	 
C 	 -107.818 	 52.2149 	 -95.8604 	 
C 	 -107.534 	 51.7233 	 -97.1187 	 
H 	 -108.733 	 52.7408 	 -95.6909 	 
C 	 -106.852 	 52.5432 	 -93.422 	 
H 	 -107.049 	 53.6232 	 -93.3973 	 
H 	 -105.883 	 52.5226 	 -92.9784 	 
C 	 -107.74 	 51.6747 	 -92.423 	 
H 	 -107.813 	 52.1222 	 -91.4297 	 
H 	 -108.788 	 51.4641 	 -92.7414 	 
C 	 -107.07 	 50.3055 	 -92.2103 	 
H 	 -107.175 	 49.5821 	 -93.0532 	 
H 	 -106.059 	 50.3348 	 -91.9013 	 
H 	 -107.598 	 49.8328 	 -91.3667 	 
S 	 -108.739 	 50.2453 	 -99.0687 	 
C 	 -110.053 	 50.9225 	 -100.014 	 
C 	 -110.292 	 52.1979 	 -99.7163 	 
C 	 -109.395 	 52.7334 	 -98.6824 	 
C 	 -108.473 	 51.7683 	 -98.2245 	 
H 	 -111.073 	 52.7179 	 -100.113 	 
C 	 -109.49 	 54.1421 	 -98.2004 	 
H 	 -108.509 	 54.3466 	 -97.7172 	 
H 	 -110.258 	 54.2024 	 -97.4357 	 
C 	 -109.656 	 55.2628 	 -99.2298 	 
H 	 -110.749 	 55.2707 	 -99.6097 	 
H 	 -109.031 	 55.0353 	 -100.04 	 
C 	 -109.291 	 56.6223 	 -98.6957 	 
H 	 -108.351 	 56.5606 	 -98.3119 	 
H 	 -109.988 	 56.9693 	 -97.906 	 
H 	 -109.109 	 57.3366 	 -99.5423 	 
H 	 -104.774 	 51.3082 	 -94.8258 	 
H 	 -110.601 	 50.4986 	 -100.778 	 
