34

S 	 -41.4239 	 -11.4209 	 4.28986 	 
C 	 -41.3497 	 -12.1796 	 5.79602 	 
C 	 -40.8303 	 -11.2419 	 6.68485 	 
C 	 -40.6315 	 -9.93925 	 6.12427 	 
C 	 -40.9556 	 -9.85761 	 4.80441 	 
H 	 -40.378 	 -9.06529 	 6.70642 	 
C 	 -40.6639 	 -11.5792 	 8.22688 	 
H 	 -40.1754 	 -12.551 	 8.2545 	 
H 	 -41.6153 	 -11.7199 	 8.63217 	 
C 	 -39.8154 	 -10.6111 	 9.01907 	 
H 	 -40.1342 	 -9.51197 	 8.86429 	 
H 	 -39.8953 	 -10.8603 	 10.0892 	 
C 	 -38.3148 	 -10.5207 	 8.68205 	 
H 	 -37.9404 	 -11.5769 	 8.87163 	 
H 	 -38.143 	 -10.2851 	 7.59574 	 
H 	 -37.7667 	 -9.77315 	 9.26926 	 
S 	 -39.6688 	 -8.91704 	 2.51154 	 
C 	 -39.7681 	 -7.15864 	 2.12408 	 
C 	 -40.4585 	 -6.46895 	 3.11379 	 
C 	 -40.9958 	 -7.29242 	 4.16108 	 
C 	 -40.701 	 -8.62817 	 3.9469 	 
H 	 -40.3117 	 -5.40447 	 3.06425 	 
C 	 -41.865 	 -6.68175 	 5.32261 	 
H 	 -42.1845 	 -7.40831 	 6.03615 	 
H 	 -42.7966 	 -6.28739 	 4.89195 	 
C 	 -41.2175 	 -5.60211 	 6.12282 	 
H 	 -41.0671 	 -4.85798 	 5.37109 	 
H 	 -40.2096 	 -5.86275 	 6.51718 	 
C 	 -42.0986 	 -5.02677 	 7.2466 	 
H 	 -41.6233 	 -4.12906 	 7.69243 	 
H 	 -42.285 	 -5.83641 	 7.96258 	 
H 	 -43.0595 	 -4.71611 	 6.91646 	 
H 	 -41.8354 	 -13.0594 	 6.21248 	 
H 	 -39.2737 	 -6.71433 	 1.27587 	 
