34

S 	 -96.3861 	 49.5372 	 -100.581 	 
C 	 -96.0798 	 49.3743 	 -98.8646 	 
C 	 -95.4186 	 50.4885 	 -98.3233 	 
C 	 -95.1545 	 51.4603 	 -99.3374 	 
C 	 -95.8012 	 51.1706 	 -100.546 	 
H 	 -94.6082 	 52.4111 	 -99.2672 	 
C 	 -94.9632 	 50.6351 	 -96.8783 	 
H 	 -95.7166 	 49.948 	 -96.3811 	 
H 	 -95.1966 	 51.5839 	 -96.5024 	 
C 	 -93.4604 	 50.2164 	 -96.6778 	 
H 	 -93.43 	 49.2021 	 -97.0152 	 
H 	 -92.8549 	 50.8982 	 -97.2487 	 
C 	 -93.0967 	 50.158 	 -95.2204 	 
H 	 -92.0773 	 49.8912 	 -95.0087 	 
H 	 -93.2495 	 51.1626 	 -94.8069 	 
H 	 -93.7803 	 49.5082 	 -94.6482 	 
S 	 -95.0637 	 51.5189 	 -103.21 	 
C 	 -95.3501 	 52.9435 	 -103.976 	 
C 	 -96.2883 	 53.7111 	 -103.298 	 
C 	 -96.4862 	 53.2893 	 -101.931 	 
C 	 -95.9498 	 52.0264 	 -101.75 	 
H 	 -96.6345 	 54.6882 	 -103.613 	 
C 	 -97.23 	 54.0752 	 -100.908 	 
H 	 -97.8392 	 53.4085 	 -100.377 	 
H 	 -97.9695 	 54.6557 	 -101.476 	 
C 	 -96.412 	 54.9441 	 -99.9267 	 
H 	 -95.5817 	 55.3261 	 -100.461 	 
H 	 -96.1428 	 54.2325 	 -99.136 	 
C 	 -97.1996 	 56.149 	 -99.4722 	 
H 	 -96.6493 	 56.8871 	 -98.8794 	 
H 	 -98.1387 	 55.7554 	 -99.0877 	 
H 	 -97.607 	 56.6811 	 -100.409 	 
H 	 -96.1982 	 48.5047 	 -98.319 	 
H 	 -95.0311 	 53.1078 	 -104.939 	 
