34

S 	 -43.9845 	 -49.5115 	 -73.2833 	 
C 	 -44.5963 	 -47.8168 	 -73.4038 	 
C 	 -45.7657 	 -47.6702 	 -72.6531 	 
C 	 -46.2252 	 -48.9299 	 -72.1075 	 
C 	 -45.3879 	 -50.0131 	 -72.4354 	 
H 	 -47.0732 	 -49.1754 	 -71.4721 	 
C 	 -46.5375 	 -46.3832 	 -72.5159 	 
H 	 -45.7919 	 -45.7501 	 -72.224 	 
H 	 -47.4108 	 -46.3822 	 -71.8284 	 
C 	 -46.9643 	 -45.756 	 -73.9168 	 
H 	 -47.4003 	 -44.7758 	 -73.6752 	 
H 	 -46.1104 	 -45.5769 	 -74.5477 	 
C 	 -48.0218 	 -46.6453 	 -74.6044 	 
H 	 -48.6971 	 -47.0661 	 -73.8465 	 
H 	 -48.6012 	 -46.0498 	 -75.2499 	 
H 	 -47.6474 	 -47.5648 	 -75.1553 	 
S 	 -43.8362 	 -52.1866 	 -71.7838 	 
C 	 -44.6014 	 -53.7527 	 -71.3764 	 
C 	 -45.9643 	 -53.5692 	 -71.3002 	 
C 	 -46.4795 	 -52.2848 	 -71.6046 	 
C 	 -45.4592 	 -51.3892 	 -71.9567 	 
H 	 -46.5667 	 -54.4361 	 -71.0153 	 
C 	 -47.9747 	 -51.8507 	 -71.5221 	 
H 	 -48.4497 	 -52.3127 	 -72.3965 	 
H 	 -48.1347 	 -50.7687 	 -71.4023 	 
C 	 -48.6133 	 -52.3552 	 -70.173 	 
H 	 -48.3988 	 -51.7688 	 -69.2865 	 
H 	 -48.2671 	 -53.3871 	 -70.0956 	 
C 	 -50.0966 	 -52.3602 	 -70.3509 	 
H 	 -50.4389 	 -51.3657 	 -70.4271 	 
H 	 -50.631 	 -52.6793 	 -69.4618 	 
H 	 -50.4848 	 -52.9382 	 -71.1613 	 
H 	 -44.2207 	 -46.9759 	 -73.8681 	 
H 	 -44.0361 	 -54.5553 	 -70.951 	 
