34

S 	 -114.682 	 49.4995 	 -118.251 	 
C 	 -114.837 	 47.8311 	 -118.58 	 
C 	 -115.847 	 47.1684 	 -117.932 	 
C 	 -116.571 	 48.1364 	 -117.117 	 
C 	 -116.053 	 49.4047 	 -117.178 	 
H 	 -117.396 	 47.8513 	 -116.404 	 
C 	 -116.146 	 45.7307 	 -117.979 	 
H 	 -115.183 	 45.3323 	 -118.245 	 
H 	 -116.69 	 45.503 	 -118.935 	 
C 	 -116.687 	 45.0842 	 -116.713 	 
H 	 -117.641 	 45.5077 	 -116.466 	 
H 	 -116.957 	 44.0254 	 -116.845 	 
C 	 -115.703 	 45.2677 	 -115.529 	 
H 	 -115.483 	 46.3318 	 -115.216 	 
H 	 -116.112 	 44.8017 	 -114.689 	 
H 	 -114.771 	 44.7667 	 -115.799 	 
S 	 -115.282 	 51.2513 	 -115.116 	 
C 	 -116.532 	 52.2503 	 -114.412 	 
C 	 -117.771 	 52.0475 	 -115.013 	 
C 	 -117.673 	 51.0516 	 -115.976 	 
C 	 -116.424 	 50.5374 	 -116.285 	 
H 	 -118.674 	 52.6171 	 -114.798 	 
C 	 -118.865 	 50.7313 	 -116.854 	 
H 	 -118.505 	 50.0767 	 -117.683 	 
H 	 -119.065 	 51.6378 	 -117.505 	 
C 	 -120.119 	 50.2413 	 -116.134 	 
H 	 -120.97 	 50.3803 	 -116.713 	 
H 	 -120.374 	 50.8104 	 -115.241 	 
C 	 -120.046 	 48.8208 	 -115.777 	 
H 	 -119.132 	 48.8249 	 -115.056 	 
H 	 -119.727 	 48.1526 	 -116.54 	 
H 	 -121.001 	 48.5117 	 -115.271 	 
H 	 -114.07 	 47.3414 	 -119.087 	 
H 	 -116.343 	 52.8851 	 -113.562 	 
