34

S 	 -84.9982 	 -3.01766 	 -65.8563 	 
C 	 -84.9375 	 -1.59226 	 -66.8579 	 
C 	 -84.7208 	 -0.404525 	 -66.0919 	 
C 	 -84.7724 	 -0.722395 	 -64.7101 	 
C 	 -84.9424 	 -2.05453 	 -64.4251 	 
H 	 -84.5421 	 0.0336225 	 -63.942 	 
C 	 -84.4128 	 1.01478 	 -66.5516 	 
H 	 -85.3324 	 1.57165 	 -66.4858 	 
H 	 -84.166 	 1.0071 	 -67.6236 	 
C 	 -83.2038 	 1.68157 	 -65.8225 	 
H 	 -83.2208 	 2.80962 	 -65.9337 	 
H 	 -83.2483 	 1.40996 	 -64.7739 	 
C 	 -81.8113 	 1.21383 	 -66.3367 	 
H 	 -81.1124 	 1.26749 	 -65.4682 	 
H 	 -81.7396 	 0.189131 	 -66.5676 	 
H 	 -81.5077 	 1.90157 	 -67.1368 	 
S 	 -83.5732 	 -2.46332 	 -62.1381 	 
C 	 -84.4112 	 -2.88527 	 -60.6451 	 
C 	 -85.6857 	 -3.25667 	 -60.8739 	 
C 	 -86.1265 	 -3.06379 	 -62.2661 	 
C 	 -85.0276 	 -2.55549 	 -63.0732 	 
H 	 -86.3073 	 -3.47978 	 -60.0803 	 
C 	 -87.5082 	 -3.25098 	 -62.7732 	 
H 	 -87.8985 	 -4.09138 	 -62.2197 	 
H 	 -87.2985 	 -3.56795 	 -63.853 	 
C 	 -88.3835 	 -2.0398 	 -62.723 	 
H 	 -89.4222 	 -2.25716 	 -63.1207 	 
H 	 -87.9357 	 -1.34829 	 -63.4426 	 
C 	 -88.6038 	 -1.2719 	 -61.3805 	 
H 	 -89.0407 	 -1.90249 	 -60.5345 	 
H 	 -89.0789 	 -0.280588 	 -61.5839 	 
H 	 -87.6903 	 -0.93285 	 -60.8911 	 
H 	 -84.6951 	 -1.58703 	 -67.9266 	 
H 	 -83.9147 	 -2.86512 	 -59.6396 	 
