34

S 	 -140.197 	 7.56856 	 4.33362 	 
C 	 -139.509 	 6.61164 	 5.6303 	 
C 	 -138.354 	 7.26499 	 6.09392 	 
C 	 -138.056 	 8.50502 	 5.37782 	 
C 	 -138.969 	 8.78637 	 4.45001 	 
H 	 -137.239 	 9.13676 	 5.42158 	 
C 	 -137.395 	 6.64301 	 7.05881 	 
H 	 -136.326 	 6.55682 	 6.62159 	 
H 	 -137.74 	 5.59693 	 7.30099 	 
C 	 -137.259 	 7.46405 	 8.39009 	 
H 	 -136.341 	 7.18616 	 8.97081 	 
H 	 -137.118 	 8.49847 	 8.12626 	 
C 	 -138.433 	 7.34743 	 9.36408 	 
H 	 -139.451 	 7.64498 	 8.97515 	 
H 	 -138.418 	 6.34875 	 9.686 	 
H 	 -138.214 	 8.07225 	 10.0882 	 
S 	 -138.6 	 9.5318 	 1.85988 	 
C 	 -138.542 	 11.185 	 1.40488 	 
C 	 -138.643 	 11.9859 	 2.57147 	 
C 	 -138.74 	 11.2436 	 3.79962 	 
C 	 -138.781 	 9.88052 	 3.51066 	 
H 	 -138.685 	 12.999 	 2.52699 	 
C 	 -138.888 	 11.927 	 5.1825 	 
H 	 -138.48 	 12.9037 	 5.17304 	 
H 	 -138.379 	 11.2826 	 5.94742 	 
C 	 -140.354 	 11.9371 	 5.65229 	 
H 	 -140.81 	 10.945 	 5.58835 	 
H 	 -140.934 	 12.6934 	 5.0874 	 
C 	 -140.631 	 12.527 	 6.99399 	 
H 	 -140.7 	 11.7469 	 7.73075 	 
H 	 -141.558 	 13.0071 	 7.1474 	 
H 	 -139.874 	 13.2054 	 7.41658 	 
H 	 -139.859 	 5.62759 	 5.91926 	 
H 	 -138.601 	 11.6071 	 0.430612 	 
