34

S 	 35.0547 	 -31.7335 	 -112.182 	 
C 	 34.6697 	 -33.1856 	 -111.325 	 
C 	 35.7299 	 -34.0227 	 -111.286 	 
C 	 36.897 	 -33.5407 	 -111.947 	 
C 	 36.6659 	 -32.2948 	 -112.559 	 
H 	 37.7842 	 -34.1703 	 -112.047 	 
C 	 35.7293 	 -35.409 	 -110.665 	 
H 	 35.2985 	 -35.2971 	 -109.672 	 
H 	 36.7606 	 -35.7026 	 -110.323 	 
C 	 35.0878 	 -36.5036 	 -111.492 	 
H 	 34.1219 	 -36.0896 	 -111.87 	 
H 	 35.7258 	 -36.67 	 -112.406 	 
C 	 34.8974 	 -37.8035 	 -110.726 	 
H 	 35.7928 	 -37.9869 	 -110.173 	 
H 	 33.9843 	 -37.792 	 -110.127 	 
H 	 34.8954 	 -38.6394 	 -111.428 	 
S 	 36.9317 	 -30.8786 	 -114.948 	 
C 	 38.4249 	 -30.1735 	 -115.433 	 
C 	 39.4173 	 -30.3709 	 -114.457 	 
C 	 38.8951 	 -31.1142 	 -113.345 	 
C 	 37.5778 	 -31.5371 	 -113.429 	 
H 	 40.4543 	 -30.064 	 -114.58 	 
C 	 39.8327 	 -31.5923 	 -112.245 	 
H 	 39.2473 	 -32.2433 	 -111.6 	 
H 	 40.1166 	 -30.7845 	 -111.571 	 
C 	 41.0758 	 -32.3336 	 -112.717 	 
H 	 41.6625 	 -32.6521 	 -111.858 	 
H 	 41.6833 	 -31.6706 	 -113.301 	 
C 	 40.8362 	 -33.6237 	 -113.42 	 
H 	 40.195 	 -33.5273 	 -114.339 	 
H 	 40.1359 	 -34.2918 	 -112.959 	 
H 	 41.7848 	 -34.1981 	 -113.508 	 
H 	 33.7495 	 -33.327 	 -110.759 	 
H 	 38.5796 	 -29.8114 	 -116.477 	 
