34

S 	 -129.561 	 31.1553 	 -11.7168 	 
C 	 -128.767 	 30.993 	 -13.2313 	 
C 	 -129.675 	 30.9264 	 -14.325 	 
C 	 -131.019 	 31.052 	 -13.9509 	 
C 	 -131.132 	 31.1386 	 -12.5324 	 
H 	 -131.915 	 31.0559 	 -14.5266 	 
C 	 -129.265 	 30.7571 	 -15.7914 	 
H 	 -128.149 	 30.7574 	 -15.8914 	 
H 	 -129.533 	 31.6979 	 -16.3099 	 
C 	 -129.964 	 29.5931 	 -16.6013 	 
H 	 -131.046 	 29.6716 	 -16.6436 	 
H 	 -129.54 	 29.6511 	 -17.6523 	 
C 	 -129.54 	 28.2469 	 -16.0014 	 
H 	 -128.53 	 28.2932 	 -15.8642 	 
H 	 -129.874 	 28.1038 	 -15.0241 	 
H 	 -130.02 	 27.4195 	 -16.6092 	 
S 	 -132.72 	 32.5081 	 -10.829 	 
C 	 -134.246 	 31.8439 	 -10.3517 	 
C 	 -134.511 	 30.7134 	 -11.1015 	 
C 	 -133.501 	 30.2674 	 -12.0183 	 
C 	 -132.413 	 31.1164 	 -11.8454 	 
H 	 -135.453 	 30.2111 	 -11.1203 	 
C 	 -133.667 	 29.0246 	 -12.7678 	 
H 	 -132.897 	 29.0762 	 -13.5232 	 
H 	 -134.56 	 29.075 	 -13.2921 	 
C 	 -133.642 	 27.7179 	 -11.8685 	 
H 	 -134.356 	 27.7676 	 -11.0302 	 
H 	 -132.655 	 27.6139 	 -11.2976 	 
C 	 -133.717 	 26.4807 	 -12.6668 	 
H 	 -133.408 	 25.5934 	 -12.0942 	 
H 	 -132.993 	 26.6668 	 -13.4671 	 
H 	 -134.723 	 26.2294 	 -13.1776 	 
H 	 -127.703 	 30.8328 	 -13.3744 	 
H 	 -134.953 	 32.3159 	 -9.66796 	 
