34

S 	 -141.19 	 7.46236 	 6.07555 	 
C 	 -139.983 	 7.83533 	 4.82763 	 
C 	 -138.701 	 7.84649 	 5.3546 	 
C 	 -138.735 	 7.76749 	 6.78266 	 
C 	 -139.974 	 7.53449 	 7.2883 	 
H 	 -137.834 	 7.78954 	 7.38594 	 
C 	 -137.428 	 8.09803 	 4.5965 	 
H 	 -136.624 	 8.16802 	 5.29819 	 
H 	 -137.535 	 9.06861 	 4.15442 	 
C 	 -137.012 	 7.01817 	 3.5831 	 
H 	 -136.747 	 6.18459 	 4.16148 	 
H 	 -137.838 	 6.78237 	 2.92401 	 
C 	 -135.775 	 7.35803 	 2.71049 	 
H 	 -135.551 	 6.415 	 2.17513 	 
H 	 -136.026 	 8.16185 	 2.02563 	 
H 	 -134.929 	 7.65459 	 3.35826 	 
S 	 -140.666 	 5.46869 	 9.08111 	 
C 	 -140.964 	 5.95626 	 10.7277 	 
C 	 -140.811 	 7.34108 	 10.9274 	 
C 	 -140.384 	 8.0723 	 9.77648 	 
C 	 -140.256 	 7.20945 	 8.72284 	 
H 	 -140.908 	 7.79997 	 11.8866 	 
C 	 -140.068 	 9.60182 	 9.85182 	 
H 	 -140.962 	 10.1898 	 10.0802 	 
H 	 -139.902 	 9.92833 	 8.85233 	 
C 	 -138.883 	 10.0764 	 10.801 	 
H 	 -138.079 	 9.43181 	 10.5662 	 
H 	 -139.088 	 9.84665 	 11.8117 	 
C 	 -138.433 	 11.5199 	 10.7489 	 
H 	 -139.128 	 12.0428 	 10.0585 	 
H 	 -137.437 	 11.6032 	 10.3751 	 
H 	 -138.576 	 11.8723 	 11.7485 	 
H 	 -140.221 	 8.16337 	 3.84242 	 
H 	 -141.327 	 5.34359 	 11.6083 	 
