34

S 	 -33.8373 	 -6.00906 	 17.1374 	 
C 	 -32.9252 	 -7.03633 	 18.2362 	 
C 	 -33.0606 	 -8.35412 	 17.9716 	 
C 	 -33.9077 	 -8.58543 	 16.8298 	 
C 	 -34.3886 	 -7.42057 	 16.2994 	 
H 	 -34.0229 	 -9.54695 	 16.3556 	 
C 	 -32.239 	 -9.37987 	 18.7561 	 
H 	 -32.9894 	 -9.85225 	 19.4706 	 
H 	 -31.5268 	 -8.96906 	 19.4557 	 
C 	 -31.4586 	 -10.4152 	 17.8737 	 
H 	 -30.8161 	 -10.903 	 18.5371 	 
H 	 -32.0731 	 -11.1736 	 17.3359 	 
C 	 -30.64 	 -9.7214 	 16.8483 	 
H 	 -31.2838 	 -9.53847 	 16.0301 	 
H 	 -30.1725 	 -8.85001 	 17.2555 	 
H 	 -29.703 	 -10.2222 	 16.6184 	 
S 	 -36.8806 	 -8.22825 	 15.4288 	 
C 	 -37.5448 	 -7.55539 	 13.9157 	 
C 	 -36.6117 	 -6.80316 	 13.3147 	 
C 	 -35.3877 	 -6.62896 	 14.0485 	 
C 	 -35.3377 	 -7.37572 	 15.2131 	 
H 	 -36.8416 	 -6.47582 	 12.3787 	 
C 	 -34.2361 	 -5.78797 	 13.4833 	 
H 	 -33.8828 	 -5.08145 	 14.2566 	 
H 	 -34.6893 	 -5.14988 	 12.7333 	 
C 	 -33.103 	 -6.46603 	 12.6448 	 
H 	 -32.4791 	 -5.66037 	 12.2483 	 
H 	 -33.5337 	 -6.93665 	 11.7434 	 
C 	 -32.1938 	 -7.39055 	 13.3743 	 
H 	 -32.653 	 -8.34639 	 13.6178 	 
H 	 -31.8277 	 -6.88172 	 14.2921 	 
H 	 -31.28 	 -7.65961 	 12.8495 	 
H 	 -32.2355 	 -6.73265 	 19.0884 	 
H 	 -38.4452 	 -7.86917 	 13.4021 	 
