34

S 	 -75.0086 	 9.61592 	 -109.703 	 
C 	 -76.5076 	 10.3652 	 -109.151 	 
C 	 -77.3468 	 9.40042 	 -108.606 	 
C 	 -76.7179 	 8.09644 	 -108.491 	 
C 	 -75.5407 	 8.03914 	 -109.144 	 
H 	 -77.205 	 7.22008 	 -108.06 	 
C 	 -78.7344 	 9.56188 	 -108.028 	 
H 	 -78.8011 	 10.629 	 -107.983 	 
H 	 -78.7245 	 9.2558 	 -106.978 	 
C 	 -80.0156 	 9.05587 	 -108.683 	 
H 	 -80.1912 	 9.34287 	 -109.784 	 
H 	 -79.8351 	 7.94433 	 -108.682 	 
C 	 -81.2088 	 9.39128 	 -107.822 	 
H 	 -82.0761 	 8.87818 	 -108.222 	 
H 	 -81.1471 	 9.02456 	 -106.766 	 
H 	 -81.4764 	 10.4686 	 -107.709 	 
S 	 -72.971 	 6.82943 	 -109.008 	 
C 	 -72.7885 	 5.12778 	 -109.398 	 
C 	 -74.0326 	 4.66467 	 -109.92 	 
C 	 -75.1345 	 5.61751 	 -109.898 	 
C 	 -74.714 	 6.82599 	 -109.362 	 
H 	 -74.1328 	 3.67757 	 -110.373 	 
C 	 -76.5483 	 5.36236 	 -110.453 	 
H 	 -76.5007 	 4.84492 	 -111.345 	 
H 	 -77.0251 	 6.27711 	 -110.646 	 
C 	 -77.391 	 4.43204 	 -109.563 	 
H 	 -77.0569 	 4.747 	 -108.519 	 
H 	 -77.0436 	 3.42401 	 -109.764 	 
C 	 -78.8781 	 4.50194 	 -109.734 	 
H 	 -79.1807 	 4.67806 	 -110.772 	 
H 	 -79.1305 	 5.41689 	 -109.167 	 
H 	 -79.3738 	 3.66066 	 -109.224 	 
H 	 -76.9168 	 11.3302 	 -109.418 	 
H 	 -71.9738 	 4.5086 	 -109.3 	 
