34

S 	 -125.252 	 60.647 	 -57.8576 	 
C 	 -123.762 	 61.5208 	 -58.4779 	 
C 	 -124.046 	 62.7671 	 -58.9781 	 
C 	 -125.341 	 63.1053 	 -58.6051 	 
C 	 -126.137 	 62.1148 	 -58.0781 	 
H 	 -125.855 	 64.0675 	 -58.817 	 
C 	 -123.016 	 63.5798 	 -59.7294 	 
H 	 -122.488 	 62.9395 	 -60.4191 	 
H 	 -122.256 	 64.0269 	 -59.1302 	 
C 	 -123.688 	 64.6456 	 -60.5609 	 
H 	 -124.482 	 64.1628 	 -61.1292 	 
H 	 -124.11 	 65.248 	 -59.8078 	 
C 	 -122.764 	 65.47 	 -61.5195 	 
H 	 -122.35 	 64.973 	 -62.399 	 
H 	 -123.321 	 66.3669 	 -61.7551 	 
H 	 -121.924 	 65.9222 	 -60.9998 	 
S 	 -127.812 	 61.7393 	 -55.9328 	 
C 	 -129.487 	 62.1154 	 -56.0411 	 
C 	 -129.741 	 62.9365 	 -57.099 	 
C 	 -128.634 	 62.9955 	 -58.0281 	 
C 	 -127.529 	 62.244 	 -57.5985 	 
H 	 -130.711 	 63.3713 	 -57.2496 	 
C 	 -128.762 	 63.8521 	 -59.309 	 
H 	 -127.761 	 64.0715 	 -59.6182 	 
H 	 -129.126 	 64.8525 	 -59.0069 	 
C 	 -129.575 	 63.2918 	 -60.456 	 
H 	 -130.636 	 63.337 	 -60.1353 	 
H 	 -129.174 	 62.2615 	 -60.5975 	 
C 	 -129.53 	 64.1601 	 -61.8055 	 
H 	 -130.338 	 64.015 	 -62.5173 	 
H 	 -128.579 	 64.0353 	 -62.2859 	 
H 	 -129.654 	 65.1457 	 -61.4651 	 
H 	 -122.78 	 61.0678 	 -58.502 	 
H 	 -130.116 	 61.934 	 -55.1889 	 
