34

S 	 -53.0574 	 6.45931 	 -100.277 	 
C 	 -54.1048 	 5.81015 	 -101.594 	 
C 	 -55.3768 	 5.58755 	 -101.124 	 
C 	 -55.4674 	 5.73358 	 -99.6837 	 
C 	 -54.2862 	 6.22215 	 -99.0921 	 
H 	 -56.3996 	 5.6086 	 -99.045 	 
C 	 -56.5056 	 4.92446 	 -101.931 	 
H 	 -57.0065 	 4.23937 	 -101.284 	 
H 	 -56.0172 	 4.3331 	 -102.779 	 
C 	 -57.5789 	 5.82251 	 -102.534 	 
H 	 -57.8634 	 6.54818 	 -101.805 	 
H 	 -57.0205 	 6.24649 	 -103.393 	 
C 	 -58.7659 	 4.98571 	 -102.976 	 
H 	 -59.4397 	 5.5853 	 -103.577 	 
H 	 -58.3594 	 4.20991 	 -103.676 	 
H 	 -59.243 	 4.49298 	 -102.166 	 
S 	 -52.7332 	 5.77709 	 -96.8791 	 
C 	 -53.1983 	 6.41387 	 -95.3357 	 
C 	 -54.3811 	 7.09436 	 -95.4216 	 
C 	 -54.9644 	 7.10275 	 -96.7298 	 
C 	 -54.1318 	 6.44391 	 -97.6535 	 
H 	 -54.6865 	 7.65013 	 -94.5142 	 
C 	 -56.1654 	 7.93026 	 -96.961 	 
H 	 -56.5509 	 7.53991 	 -97.8632 	 
H 	 -55.789 	 8.86617 	 -97.2738 	 
C 	 -57.0632 	 8.1852 	 -95.7851 	 
H 	 -56.6547 	 8.82874 	 -94.9846 	 
H 	 -57.4033 	 7.26459 	 -95.3025 	 
C 	 -58.3593 	 8.95789 	 -96.126 	 
H 	 -58.127 	 9.83195 	 -96.7873 	 
H 	 -58.7883 	 9.38815 	 -95.2226 	 
H 	 -59.1137 	 8.32972 	 -96.7169 	 
H 	 -53.7975 	 5.54273 	 -102.568 	 
H 	 -52.555 	 6.49435 	 -94.4751 	 
