34

S 	 -57.9065 	 13.5511 	 -94.2621 	 
C 	 -56.7934 	 12.3078 	 -93.9448 	 
C 	 -55.9241 	 12.6739 	 -92.8922 	 
C 	 -56.1565 	 13.9483 	 -92.4217 	 
C 	 -57.1054 	 14.5471 	 -93.1789 	 
H 	 -55.6785 	 14.4759 	 -91.6589 	 
C 	 -54.836 	 11.8158 	 -92.2215 	 
H 	 -53.8688 	 12.2388 	 -92.4905 	 
H 	 -54.8507 	 10.7917 	 -92.499 	 
C 	 -54.9183 	 11.7594 	 -90.7241 	 
H 	 -54.659 	 12.7388 	 -90.3792 	 
H 	 -55.9762 	 11.5893 	 -90.319 	 
C 	 -54.1338 	 10.6228 	 -90.0359 	 
H 	 -53.116 	 10.8973 	 -89.8657 	 
H 	 -54.5314 	 10.3051 	 -89.0053 	 
H 	 -54.1351 	 9.73826 	 -90.6371 	 
S 	 -59.2711 	 16.3169 	 -93.1697 	 
C 	 -59.0785 	 18.0175 	 -92.7351 	 
C 	 -57.7586 	 18.2481 	 -92.3942 	 
C 	 -56.8789 	 17.0619 	 -92.5852 	 
C 	 -57.5278 	 15.9463 	 -93.1136 	 
H 	 -57.5046 	 19.2568 	 -92.0203 	 
C 	 -55.406 	 17.2082 	 -92.1733 	 
H 	 -54.9098 	 18.0998 	 -92.5557 	 
H 	 -54.8068 	 16.4703 	 -92.6473 	 
C 	 -55.0896 	 17.1949 	 -90.6767 	 
H 	 -55.6782 	 16.4753 	 -90.1149 	 
H 	 -55.3321 	 18.1957 	 -90.2003 	 
C 	 -53.5964 	 16.9752 	 -90.3809 	 
H 	 -53.2674 	 16.0635 	 -90.8676 	 
H 	 -53.4505 	 16.9864 	 -89.3135 	 
H 	 -52.9968 	 17.7811 	 -90.73 	 
H 	 -56.7855 	 11.3564 	 -94.3982 	 
H 	 -59.7267 	 18.7966 	 -92.8992 	 
