34

S 	 -27.382 	 -3.71743 	 -5.42275 	 
C 	 -26.1514 	 -4.96062 	 -5.2454 	 
C 	 -26.6396 	 -6.27596 	 -5.46141 	 
C 	 -27.9669 	 -6.21495 	 -5.92178 	 
C 	 -28.5369 	 -4.93628 	 -5.94114 	 
H 	 -28.5057 	 -7.05392 	 -6.3022 	 
C 	 -25.9381 	 -7.62704 	 -5.1981 	 
H 	 -24.8391 	 -7.54857 	 -5.4432 	 
H 	 -26.2874 	 -8.29077 	 -5.93586 	 
C 	 -26.1102 	 -8.16344 	 -3.76309 	 
H 	 -25.6696 	 -7.49073 	 -3.02959 	 
H 	 -27.1969 	 -8.02709 	 -3.62152 	 
C 	 -25.6959 	 -9.58985 	 -3.54054 	 
H 	 -25.9309 	 -9.94668 	 -2.55154 	 
H 	 -26.1642 	 -10.2829 	 -4.25363 	 
H 	 -24.6172 	 -9.62215 	 -3.61993 	 
S 	 -30.0094 	 -3.57797 	 -7.69828 	 
C 	 -31.6993 	 -3.76079 	 -7.80384 	 
C 	 -32.1294 	 -4.6746 	 -6.85822 	 
C 	 -31.1173 	 -5.21024 	 -5.97176 	 
C 	 -29.8735 	 -4.66085 	 -6.36436 	 
H 	 -33.1811 	 -4.90929 	 -6.82872 	 
C 	 -31.3611 	 -6.17875 	 -4.84448 	 
H 	 -30.447 	 -6.72264 	 -4.7268 	 
H 	 -32.0615 	 -6.92014 	 -5.21713 	 
C 	 -31.8463 	 -5.49543 	 -3.57712 	 
H 	 -32.8826 	 -5.15035 	 -3.71037 	 
H 	 -31.1699 	 -4.61162 	 -3.36674 	 
C 	 -31.7604 	 -6.37095 	 -2.30849 	 
H 	 -31.99 	 -5.88646 	 -1.3887 	 
H 	 -30.7326 	 -6.7651 	 -2.16992 	 
H 	 -32.4823 	 -7.14599 	 -2.49294 	 
H 	 -25.1929 	 -4.95972 	 -4.77563 	 
H 	 -32.3395 	 -3.25404 	 -8.53492 	 
