34

S 	 -45.2799 	 16.6125 	 -100.291 	 
C 	 -44.3789 	 15.1675 	 -99.8481 	 
C 	 -44.8703 	 14.0456 	 -100.496 	 
C 	 -45.8252 	 14.3598 	 -101.525 	 
C 	 -46.1654 	 15.722 	 -101.554 	 
H 	 -46.2195 	 13.8042 	 -102.373 	 
C 	 -44.2224 	 12.7076 	 -100.383 	 
H 	 -43.9696 	 12.6211 	 -99.2754 	 
H 	 -43.3127 	 12.8136 	 -100.906 	 
C 	 -44.9575 	 11.3153 	 -100.89 	 
H 	 -45.2015 	 11.41 	 -101.999 	 
H 	 -44.2181 	 10.4458 	 -100.893 	 
C 	 -46.2863 	 11.0253 	 -100.221 	 
H 	 -46.3423 	 11.2694 	 -99.146 	 
H 	 -46.8994 	 11.6908 	 -100.833 	 
H 	 -46.6746 	 10.0035 	 -100.339 	 
S 	 -48.6009 	 16.7919 	 -101.711 	 
C 	 -49.4352 	 17.0071 	 -103.276 	 
C 	 -48.5335 	 16.7276 	 -104.259 	 
C 	 -47.2983 	 16.1532 	 -103.859 	 
C 	 -47.1668 	 16.2816 	 -102.463 	 
H 	 -48.8324 	 16.9429 	 -105.302 	 
C 	 -46.1649 	 15.7114 	 -104.788 	 
H 	 -45.2119 	 15.5328 	 -104.294 	 
H 	 -46.0556 	 16.5404 	 -105.39 	 
C 	 -46.537 	 14.4091 	 -105.626 	 
H 	 -47.5662 	 14.4136 	 -106.027 	 
H 	 -46.6482 	 13.5499 	 -104.983 	 
C 	 -45.463 	 14.1497 	 -106.757 	 
H 	 -44.4723 	 14.207 	 -106.224 	 
H 	 -45.4153 	 14.9622 	 -107.429 	 
H 	 -45.4912 	 13.1465 	 -107.172 	 
H 	 -43.4845 	 15.243 	 -99.2523 	 
H 	 -50.4415 	 17.3832 	 -103.37 	 
