34

S 	 -99.7375 	 -3.48245 	 -102.267 	 
C 	 -99.4107 	 -3.3984 	 -103.942 	 
C 	 -100.501 	 -2.89398 	 -104.681 	 
C 	 -101.661 	 -2.77328 	 -103.831 	 
C 	 -101.357 	 -2.90733 	 -102.45 	 
H 	 -102.676 	 -2.53667 	 -104.178 	 
C 	 -100.456 	 -2.49797 	 -106.142 	 
H 	 -101.153 	 -1.68619 	 -106.202 	 
H 	 -100.923 	 -3.25864 	 -106.795 	 
C 	 -99.0881 	 -1.99904 	 -106.68 	 
H 	 -98.9194 	 -1.09385 	 -106.047 	 
H 	 -98.2125 	 -2.67512 	 -106.503 	 
C 	 -98.9674 	 -1.80161 	 -108.21 	 
H 	 -99.2806 	 -2.72118 	 -108.75 	 
H 	 -99.7373 	 -0.998538 	 -108.418 	 
H 	 -98.0133 	 -1.3123 	 -108.484 	 
S 	 -101.549 	 -1.65408 	 -99.9858 	 
C 	 -103.044 	 -1.71775 	 -99.0711 	 
C 	 -104.008 	 -2.3197 	 -99.8628 	 
C 	 -103.542 	 -2.80776 	 -101.09 	 
C 	 -102.198 	 -2.64925 	 -101.274 	 
H 	 -104.979 	 -2.4212 	 -99.373 	 
C 	 -104.476 	 -3.46817 	 -102.088 	 
H 	 -104.386 	 -2.934 	 -102.989 	 
H 	 -105.553 	 -3.36958 	 -101.909 	 
C 	 -104.135 	 -4.94531 	 -102.413 	 
H 	 -104.235 	 -5.48779 	 -101.41 	 
H 	 -103.098 	 -5.16414 	 -102.718 	 
C 	 -105.156 	 -5.65302 	 -103.384 	 
H 	 -105.105 	 -6.7196 	 -103.215 	 
H 	 -104.976 	 -5.44563 	 -104.413 	 
H 	 -106.215 	 -5.32557 	 -103.203 	 
H 	 -98.4676 	 -3.53114 	 -104.35 	 
H 	 -103.107 	 -1.43611 	 -98.0481 	 
