34

S 	 -127.946 	 13.2239 	 -10.3612 	 
C 	 -126.3 	 13.543 	 -10.0019 	 
C 	 -125.428 	 12.7524 	 -10.7249 	 
C 	 -126.141 	 11.8198 	 -11.5413 	 
C 	 -127.531 	 11.7867 	 -11.314 	 
H 	 -125.706 	 11.0916 	 -12.1786 	 
C 	 -123.947 	 12.8849 	 -10.5355 	 
H 	 -123.814 	 13.9513 	 -10.5542 	 
H 	 -123.439 	 12.4109 	 -11.3628 	 
C 	 -123.405 	 12.3291 	 -9.22126 	 
H 	 -123.675 	 12.9669 	 -8.40303 	 
H 	 -123.976 	 11.3695 	 -9.06542 	 
C 	 -121.926 	 11.9592 	 -9.2987 	 
H 	 -121.439 	 12.8755 	 -9.23038 	 
H 	 -121.599 	 11.3899 	 -8.44548 	 
H 	 -121.628 	 11.4629 	 -10.1755 	 
S 	 -129.543 	 11.9217 	 -13.1034 	 
C 	 -130.301 	 10.462 	 -13.713 	 
C 	 -129.72 	 9.34002 	 -13.1954 	 
C 	 -128.761 	 9.6621 	 -12.1719 	 
C 	 -128.541 	 10.9799 	 -12.0131 	 
H 	 -129.981 	 8.30136 	 -13.5132 	 
C 	 -127.884 	 8.55185 	 -11.672 	 
H 	 -126.872 	 8.62322 	 -12.1411 	 
H 	 -128.244 	 7.57282 	 -11.9275 	 
C 	 -127.724 	 8.50822 	 -10.1379 	 
H 	 -128.711 	 8.56731 	 -9.63277 	 
H 	 -127.131 	 9.37856 	 -9.85668 	 
C 	 -126.952 	 7.29016 	 -9.56778 	 
H 	 -127.454 	 6.37146 	 -9.72779 	 
H 	 -126.799 	 7.25533 	 -8.51349 	 
H 	 -126.02 	 7.14437 	 -10.1026 	 
H 	 -125.977 	 14.1884 	 -9.27162 	 
H 	 -130.945 	 10.4692 	 -14.6024 	 
