34

S 	 -39.988 	 -1.7432 	 -25.4609 	 
C 	 -40.8535 	 -0.303088 	 -25.2276 	 
C 	 -41.9542 	 -0.586799 	 -24.4336 	 
C 	 -42.2901 	 -1.93635 	 -24.2941 	 
C 	 -41.2744 	 -2.73683 	 -24.7795 	 
H 	 -43.1513 	 -2.2364 	 -23.7244 	 
C 	 -42.8672 	 0.489546 	 -23.9376 	 
H 	 -42.3266 	 1.4155 	 -23.6756 	 
H 	 -43.4085 	 0.218951 	 -23.0523 	 
C 	 -43.8543 	 0.823625 	 -25.0117 	 
H 	 -44.1778 	 1.9298 	 -24.9254 	 
H 	 -43.5178 	 0.725168 	 -26.008 	 
C 	 -45.2666 	 0.188743 	 -24.9297 	 
H 	 -45.2739 	 -0.804166 	 -25.3536 	 
H 	 -45.7261 	 0.119988 	 -24.0183 	 
H 	 -46.0319 	 0.740066 	 -25.5105 	 
S 	 -41.7509 	 -5.11598 	 -26.0364 	 
C 	 -41.5106 	 -6.652 	 -25.1913 	 
C 	 -40.8157 	 -6.38416 	 -23.9881 	 
C 	 -40.738 	 -4.98499 	 -23.688 	 
C 	 -41.1712 	 -4.16833 	 -24.6715 	 
H 	 -40.5737 	 -7.09572 	 -23.247 	 
C 	 -39.9683 	 -4.46373 	 -22.5171 	 
H 	 -40.4974 	 -4.74288 	 -21.6053 	 
H 	 -40.03 	 -3.404 	 -22.6223 	 
C 	 -38.481 	 -4.8944 	 -22.3226 	 
H 	 -37.9308 	 -4.70395 	 -23.2656 	 
H 	 -38.448 	 -5.94333 	 -22.1499 	 
C 	 -37.7265 	 -4.22117 	 -21.1533 	 
H 	 -38.194 	 -4.41278 	 -20.1792 	 
H 	 -37.8375 	 -3.15579 	 -21.3122 	 
H 	 -36.6679 	 -4.579 	 -21.0119 	 
H 	 -40.4687 	 0.716688 	 -25.4008 	 
H 	 -41.8605 	 -7.64981 	 -25.4829 	 
