34

S 	 -31.8631 	 -7.2917 	 2.71674 	 
C 	 -32.1957 	 -6.41211 	 4.19013 	 
C 	 -33.5355 	 -6.07727 	 4.25149 	 
C 	 -34.2517 	 -6.61617 	 3.16484 	 
C 	 -33.4726 	 -7.07474 	 2.16161 	 
H 	 -35.2707 	 -6.51166 	 2.95954 	 
C 	 -34.2007 	 -5.446 	 5.47416 	 
H 	 -33.8996 	 -5.97495 	 6.45076 	 
H 	 -35.2911 	 -5.63397 	 5.4634 	 
C 	 -34.1861 	 -3.90541 	 5.56674 	 
H 	 -34.6734 	 -3.5463 	 4.6486 	 
H 	 -34.8006 	 -3.61242 	 6.41194 	 
C 	 -32.8322 	 -3.33839 	 5.52182 	 
H 	 -32.1967 	 -3.41918 	 4.62022 	 
H 	 -32.8965 	 -2.23218 	 5.69733 	 
H 	 -32.3057 	 -3.66167 	 6.3037 	 
S 	 -33.714 	 -8.94431 	 0.157458 	 
C 	 -34.5447 	 -8.58847 	 -1.33715 	 
C 	 -34.8899 	 -7.27924 	 -1.30603 	 
C 	 -34.5522 	 -6.57774 	 -0.147893 	 
C 	 -33.8746 	 -7.32354 	 0.792128 	 
H 	 -35.3931 	 -6.79054 	 -2.1639 	 
C 	 -34.9101 	 -5.14699 	 0.0114694 	 
H 	 -34.4274 	 -4.54571 	 -0.809496 	 
H 	 -34.4955 	 -4.89669 	 0.90959 	 
C 	 -36.4464 	 -4.89617 	 0.120415 	 
H 	 -36.8977 	 -5.54104 	 0.893794 	 
H 	 -36.961 	 -5.28632 	 -0.78052 	 
C 	 -36.7865 	 -3.46048 	 0.265372 	 
H 	 -36.3995 	 -2.9993 	 -0.617112 	 
H 	 -36.3024 	 -3.1194 	 1.12354 	 
H 	 -37.8018 	 -3.19096 	 0.376246 	 
H 	 -31.4452 	 -6.24437 	 5.00797 	 
H 	 -34.8165 	 -9.27126 	 -2.0976 	 
