34

S 	 -108.948 	 54.912 	 -97.504 	 
C 	 -108.676 	 54.3392 	 -95.9209 	 
C 	 -107.46 	 53.6229 	 -95.779 	 
C 	 -106.674 	 53.7957 	 -96.9605 	 
C 	 -107.327 	 54.4534 	 -97.9916 	 
H 	 -105.698 	 53.4169 	 -97.1862 	 
C 	 -106.861 	 53.0319 	 -94.5187 	 
H 	 -107.52 	 52.1595 	 -94.4063 	 
H 	 -106.991 	 53.7863 	 -93.6888 	 
C 	 -105.453 	 52.4959 	 -94.3537 	 
H 	 -105.488 	 51.8006 	 -93.5264 	 
H 	 -105.308 	 51.9612 	 -95.2972 	 
C 	 -104.442 	 53.5165 	 -94.0467 	 
H 	 -104.481 	 54.351 	 -94.7338 	 
H 	 -104.647 	 53.9603 	 -93.0497 	 
H 	 -103.438 	 53.171 	 -94.0075 	 
S 	 -105.016 	 55.3041 	 -99.1547 	 
C 	 -104.936 	 55.6788 	 -100.805 	 
C 	 -106.154 	 55.41 	 -101.429 	 
C 	 -107.136 	 54.8895 	 -100.548 	 
C 	 -106.644 	 54.7456 	 -99.2695 	 
H 	 -106.191 	 55.6402 	 -102.457 	 
C 	 -108.57 	 54.5837 	 -100.922 	 
H 	 -109.099 	 53.8183 	 -100.279 	 
H 	 -108.588 	 54.031 	 -101.916 	 
C 	 -109.349 	 55.9006 	 -101.016 	 
H 	 -108.821 	 56.4494 	 -101.798 	 
H 	 -109.428 	 56.4194 	 -100.092 	 
C 	 -110.82 	 55.7416 	 -101.493 	 
H 	 -111.402 	 55.3936 	 -100.673 	 
H 	 -111.066 	 54.96 	 -102.202 	 
H 	 -111.174 	 56.7307 	 -101.756 	 
H 	 -109.414 	 54.4032 	 -95.1635 	 
H 	 -104.082 	 55.9934 	 -101.346 	 
