34

S 	 36.5281 	 -26.7602 	 -113.958 	 
C 	 37.9646 	 -26.688 	 -114.911 	 
C 	 38.5821 	 -25.4218 	 -114.782 	 
C 	 37.7994 	 -24.5431 	 -114.026 	 
C 	 36.701 	 -25.1553 	 -113.416 	 
H 	 37.9266 	 -23.5031 	 -113.913 	 
C 	 39.8333 	 -24.9937 	 -115.509 	 
H 	 40.1367 	 -24.0907 	 -115.025 	 
H 	 39.3615 	 -24.6422 	 -116.435 	 
C 	 40.8529 	 -26.1167 	 -115.855 	 
H 	 40.5896 	 -26.9311 	 -116.533 	 
H 	 41.6692 	 -25.6577 	 -116.413 	 
C 	 41.5104 	 -26.6211 	 -114.582 	 
H 	 40.8242 	 -27.0601 	 -113.853 	 
H 	 42.3091 	 -27.3018 	 -114.776 	 
H 	 41.9795 	 -25.7323 	 -114.089 	 
S 	 34.3307 	 -23.6866 	 -113.489 	 
C 	 33.7768 	 -22.9145 	 -111.979 	 
C 	 34.5598 	 -23.2143 	 -110.921 	 
C 	 35.6136 	 -24.1011 	 -111.303 	 
C 	 35.7017 	 -24.4323 	 -112.636 	 
H 	 34.4038 	 -22.8547 	 -109.919 	 
C 	 36.7948 	 -24.3928 	 -110.396 	 
H 	 36.9604 	 -23.347 	 -110.091 	 
H 	 37.6922 	 -24.5926 	 -110.961 	 
C 	 36.4839 	 -25.2813 	 -109.174 	 
H 	 35.8253 	 -24.7637 	 -108.608 	 
H 	 37.3614 	 -25.4295 	 -108.559 	 
C 	 35.9059 	 -26.5924 	 -109.386 	 
H 	 36.5937 	 -27.3495 	 -109.807 	 
H 	 35.1285 	 -26.47 	 -110.14 	 
H 	 35.3789 	 -27.0797 	 -108.541 	 
H 	 38.366 	 -27.4363 	 -115.594 	 
H 	 33.0164 	 -22.113 	 -111.847 	 
