34

S 	 34.3843 	 -4.33224 	 -122.454 	 
C 	 33.7966 	 -6.04774 	 -122.325 	 
C 	 34.4049 	 -6.62493 	 -121.232 	 
C 	 35.2138 	 -5.6473 	 -120.452 	 
C 	 35.2697 	 -4.38915 	 -120.98 	 
H 	 35.7933 	 -5.96245 	 -119.602 	 
C 	 34.2826 	 -8.08066 	 -120.727 	 
H 	 33.2828 	 -8.3462 	 -120.683 	 
H 	 34.6359 	 -8.1188 	 -119.692 	 
C 	 34.9414 	 -9.15746 	 -121.603 	 
H 	 34.293 	 -9.3429 	 -122.473 	 
H 	 35.9662 	 -8.91834 	 -121.787 	 
C 	 34.8817 	 -10.5703 	 -120.963 	 
H 	 33.9448 	 -10.7568 	 -120.368 	 
H 	 34.834 	 -11.2466 	 -121.845 	 
H 	 35.7605 	 -10.8981 	 -120.409 	 
S 	 37.5591 	 -3.07609 	 -121.683 	 
C 	 38.3513 	 -1.98306 	 -120.577 	 
C 	 37.7286 	 -1.96776 	 -119.371 	 
C 	 36.5545 	 -2.81079 	 -119.358 	 
C 	 36.2293 	 -3.35675 	 -120.62 	 
H 	 38.1635 	 -1.44809 	 -118.528 	 
C 	 35.6982 	 -2.93782 	 -118.123 	 
H 	 34.9097 	 -3.59199 	 -118.504 	 
H 	 35.2647 	 -1.96085 	 -117.868 	 
C 	 36.374 	 -3.61318 	 -116.931 	 
H 	 37.1034 	 -2.94718 	 -116.446 	 
H 	 36.9492 	 -4.3831 	 -117.337 	 
C 	 35.3799 	 -4.02256 	 -115.807 	 
H 	 35.8141 	 -4.77886 	 -115.145 	 
H 	 34.502 	 -4.38121 	 -116.255 	 
H 	 35.1798 	 -3.14065 	 -115.275 	 
H 	 33.1863 	 -6.664 	 -123.044 	 
H 	 39.3416 	 -1.54404 	 -120.668 	 
