34

S 	 -96.1648 	 -27.5403 	 -60.2693 	 
C 	 -97.5072 	 -26.5388 	 -59.9031 	 
C 	 -97.3677 	 -25.2972 	 -60.4211 	 
C 	 -95.9988 	 -25.0718 	 -60.8049 	 
C 	 -95.1761 	 -26.2012 	 -60.7457 	 
H 	 -95.5963 	 -24.0989 	 -61.0508 	 
C 	 -98.3449 	 -24.1571 	 -60.2269 	 
H 	 -99.3545 	 -24.4258 	 -60.6062 	 
H 	 -98.0983 	 -23.3528 	 -60.9068 	 
C 	 -98.5177 	 -23.7472 	 -58.8002 	 
H 	 -99.0891 	 -22.8419 	 -59.0108 	 
H 	 -99.012 	 -24.4002 	 -58.2221 	 
C 	 -97.2949 	 -23.3862 	 -57.9877 	 
H 	 -97.6668 	 -23.2903 	 -56.9756 	 
H 	 -96.6704 	 -24.2467 	 -57.8729 	 
H 	 -96.8059 	 -22.5036 	 -58.4802 	 
S 	 -93.3207 	 -26.8325 	 -62.5839 	 
C 	 -91.6453 	 -26.4388 	 -62.2825 	 
C 	 -91.4003 	 -26.0177 	 -61.0153 	 
C 	 -92.6738 	 -25.8097 	 -60.325 	 
C 	 -93.7489 	 -26.2849 	 -61.0291 	 
H 	 -90.3705 	 -25.8831 	 -60.7066 	 
C 	 -92.751 	 -25.3731 	 -58.9066 	 
H 	 -93.1191 	 -26.1886 	 -58.2864 	 
H 	 -93.5957 	 -24.6596 	 -58.8742 	 
C 	 -91.4051 	 -24.804 	 -58.3439 	 
H 	 -90.8813 	 -24.1788 	 -59.0891 	 
H 	 -90.7513 	 -25.5929 	 -58.014 	 
C 	 -91.6438 	 -24.0491 	 -56.9958 	 
H 	 -92.4211 	 -23.337 	 -57.1778 	 
H 	 -90.7394 	 -23.4882 	 -56.5553 	 
H 	 -91.9973 	 -24.7424 	 -56.2338 	 
H 	 -98.4645 	 -26.8244 	 -59.5602 	 
H 	 -90.8658 	 -26.8121 	 -62.9429 	 
