34

S 	 -37.3577 	 -0.700589 	 -6.84927 	 
C 	 -36.6539 	 -1.2922 	 -5.38058 	 
C 	 -35.8278 	 -2.38634 	 -5.63072 	 
C 	 -35.6559 	 -2.60006 	 -7.01678 	 
C 	 -36.5215 	 -1.88037 	 -7.77685 	 
H 	 -34.9371 	 -3.24048 	 -7.47247 	 
C 	 -35.125 	 -3.24269 	 -4.5988 	 
H 	 -35.3693 	 -4.29345 	 -4.77845 	 
H 	 -35.6099 	 -2.96616 	 -3.66426 	 
C 	 -33.6133 	 -2.93514 	 -4.48728 	 
H 	 -33.0577 	 -2.88024 	 -5.43729 	 
H 	 -33.4937 	 -1.91323 	 -4.09184 	 
C 	 -32.8403 	 -3.82534 	 -3.52143 	 
H 	 -31.8173 	 -3.50287 	 -3.34171 	 
H 	 -33.3351 	 -3.68814 	 -2.55856 	 
H 	 -32.9223 	 -4.85556 	 -3.76455 	 
S 	 -36.1905 	 -0.411298 	 -10.0838 	 
C 	 -36.3619 	 -1.23328 	 -11.5748 	 
C 	 -36.8814 	 -2.49197 	 -11.4 	 
C 	 -36.9689 	 -2.93817 	 -10.0702 	 
C 	 -36.6926 	 -1.89402 	 -9.19395 	 
H 	 -36.9955 	 -2.98761 	 -12.3012 	 
C 	 -37.2992 	 -4.37806 	 -9.6273 	 
H 	 -36.5424 	 -4.71975 	 -8.89347 	 
H 	 -37.3013 	 -4.96287 	 -10.562 	 
C 	 -38.6761 	 -4.51815 	 -8.97319 	 
H 	 -39.4891 	 -4.12107 	 -9.60667 	 
H 	 -38.6662 	 -3.81648 	 -8.13413 	 
C 	 -38.989 	 -5.95257 	 -8.53978 	 
H 	 -39.9045 	 -5.83105 	 -7.99545 	 
H 	 -38.2792 	 -6.48731 	 -7.94521 	 
H 	 -39.1836 	 -6.55169 	 -9.40606 	 
H 	 -36.8601 	 -0.980366 	 -4.41242 	 
H 	 -36.0979 	 -0.765212 	 -12.5118 	 
