34

S 	 -97.7171 	 17.4535 	 -120.994 	 
C 	 -97.4949 	 16.8627 	 -119.35 	 
C 	 -98.5814 	 17.1161 	 -118.547 	 
C 	 -99.6045 	 17.7912 	 -119.301 	 
C 	 -99.349 	 18.072 	 -120.601 	 
H 	 -100.394 	 18.1968 	 -118.772 	 
C 	 -98.7308 	 16.6599 	 -117.102 	 
H 	 -98.9966 	 15.6412 	 -116.954 	 
H 	 -99.6351 	 17.0993 	 -116.78 	 
C 	 -97.616 	 16.9734 	 -116.124 	 
H 	 -96.8098 	 16.2671 	 -116.068 	 
H 	 -97.1526 	 17.8813 	 -116.459 	 
C 	 -98.2447 	 17.2188 	 -114.729 	 
H 	 -97.4785 	 17.3339 	 -113.911 	 
H 	 -98.7314 	 18.2323 	 -114.724 	 
H 	 -98.982 	 16.3969 	 -114.499 	 
S 	 -99.7741 	 20.5388 	 -121.714 	 
C 	 -101.015 	 20.8388 	 -122.903 	 
C 	 -101.822 	 19.7272 	 -123.022 	 
C 	 -101.457 	 18.6686 	 -122.115 	 
C 	 -100.226 	 18.8781 	 -121.461 	 
H 	 -102.705 	 19.7455 	 -123.624 	 
C 	 -102.366 	 17.492 	 -121.839 	 
H 	 -101.632 	 16.9335 	 -121.297 	 
H 	 -102.552 	 16.8706 	 -122.743 	 
C 	 -103.703 	 17.6642 	 -121.037 	 
H 	 -104.382 	 16.9709 	 -121.378 	 
H 	 -104.213 	 18.5696 	 -121.259 	 
C 	 -103.547 	 17.5574 	 -119.499 	 
H 	 -102.994 	 18.4596 	 -119.096 	 
H 	 -103.029 	 16.6729 	 -119.187 	 
H 	 -104.595 	 17.6533 	 -119.114 	 
H 	 -96.679 	 16.294 	 -118.979 	 
H 	 -101.276 	 21.7634 	 -123.428 	 
