34

S 	 29.6965 	 -30.2539 	 -130.961 	 
C 	 29.3506 	 -28.6288 	 -131.502 	 
C 	 30.0622 	 -27.682 	 -130.756 	 
C 	 31.0549 	 -28.2127 	 -129.907 	 
C 	 30.9538 	 -29.6164 	 -129.854 	 
H 	 31.7155 	 -27.6355 	 -129.315 	 
C 	 29.9673 	 -26.2392 	 -130.99 	 
H 	 29.2279 	 -26.0843 	 -131.787 	 
H 	 30.8905 	 -25.9049 	 -131.476 	 
C 	 29.755 	 -25.3713 	 -129.772 	 
H 	 28.7386 	 -25.4822 	 -129.434 	 
H 	 30.5031 	 -25.6175 	 -129.065 	 
C 	 30.0309 	 -23.892 	 -130.161 	 
H 	 29.6632 	 -23.7548 	 -131.226 	 
H 	 29.6408 	 -23.1056 	 -129.521 	 
H 	 31.1386 	 -23.7642 	 -130.204 	 
S 	 33.1886 	 -31.1736 	 -129.9 	 
C 	 33.7737 	 -31.9187 	 -128.467 	 
C 	 32.7728 	 -31.8528 	 -127.459 	 
C 	 31.6852 	 -31.0125 	 -127.765 	 
C 	 31.8111 	 -30.5356 	 -129.073 	 
H 	 33.0022 	 -32.2804 	 -126.503 	 
C 	 30.6504 	 -30.6989 	 -126.761 	 
H 	 30.349 	 -29.6321 	 -127.02 	 
H 	 31.0971 	 -30.808 	 -125.795 	 
C 	 29.3982 	 -31.5853 	 -126.744 	 
H 	 29.8001 	 -32.4904 	 -126.516 	 
H 	 28.9937 	 -31.7349 	 -127.79 	 
C 	 28.3377 	 -31.1935 	 -125.763 	 
H 	 27.3648 	 -31.7825 	 -125.722 	 
H 	 28.0255 	 -30.1343 	 -125.896 	 
H 	 28.6647 	 -31.1854 	 -124.717 	 
H 	 28.7159 	 -28.4523 	 -132.365 	 
H 	 34.5578 	 -32.61 	 -128.427 	 
