34

S 	 -111.49 	 59.9182 	 -24.8026 	 
C 	 -111.702 	 60.8948 	 -23.3543 	 
C 	 -113.03 	 61.0423 	 -22.9758 	 
C 	 -113.906 	 60.3893 	 -23.9491 	 
C 	 -113.255 	 59.6077 	 -24.87 	 
H 	 -114.978 	 60.1867 	 -23.9174 	 
C 	 -113.477 	 62.0677 	 -22.016 	 
H 	 -113.017 	 61.914 	 -21.0162 	 
H 	 -114.51 	 61.7228 	 -21.8541 	 
C 	 -113.376 	 63.4709 	 -22.5078 	 
H 	 -112.385 	 63.7717 	 -22.769 	 
H 	 -113.933 	 63.5442 	 -23.3988 	 
C 	 -114.017 	 64.4164 	 -21.4322 	 
H 	 -113.758 	 65.4238 	 -21.5928 	 
H 	 -115.094 	 64.4447 	 -21.316 	 
H 	 -113.585 	 64.2008 	 -20.4656 	 
S 	 -113.599 	 57.1966 	 -26.0195 	 
C 	 -114.977 	 56.8802 	 -27.0892 	 
C 	 -115.556 	 58.0469 	 -27.4133 	 
C 	 -114.944 	 59.1679 	 -26.7952 	 
C 	 -113.939 	 58.8583 	 -25.9005 	 
H 	 -116.238 	 57.964 	 -28.1628 	 
C 	 -115.398 	 60.5565 	 -27.157 	 
H 	 -115.523 	 60.5424 	 -28.225 	 
H 	 -114.583 	 61.2664 	 -27.0295 	 
C 	 -116.665 	 61.0705 	 -26.3771 	 
H 	 -116.336 	 61.1954 	 -25.3432 	 
H 	 -117.463 	 60.372 	 -26.4044 	 
C 	 -117.163 	 62.4222 	 -26.8443 	 
H 	 -118.042 	 62.7978 	 -26.2201 	 
H 	 -117.481 	 62.1608 	 -27.8239 	 
H 	 -116.393 	 63.1618 	 -26.9005 	 
H 	 -110.858 	 61.295 	 -22.8029 	 
H 	 -115.132 	 55.9132 	 -27.6199 	 
