34

S 	 26.4068 	 -3.3641 	 -108.273 	 
C 	 27.1807 	 -2.03211 	 -109.057 	 
C 	 26.4414 	 -1.48853 	 -110.144 	 
C 	 25.2721 	 -2.24626 	 -110.308 	 
C 	 25.1195 	 -3.32229 	 -109.462 	 
H 	 24.4912 	 -2.05752 	 -111.037 	 
C 	 26.8799 	 -0.387882 	 -111.132 	 
H 	 27.6975 	 0.224938 	 -110.73 	 
H 	 25.9721 	 0.25112 	 -111.013 	 
C 	 27.1176 	 -0.841645 	 -112.633 	 
H 	 26.2399 	 -1.42061 	 -112.991 	 
H 	 27.3271 	 0.0401241 	 -113.317 	 
C 	 28.3015 	 -1.84058 	 -112.747 	 
H 	 29.2439 	 -1.38947 	 -112.587 	 
H 	 28.333 	 -2.65805 	 -112.036 	 
H 	 28.3927 	 -2.25569 	 -113.739 	 
S 	 23.2377 	 -4.40768 	 -107.91 	 
C 	 22.153 	 -5.6672 	 -108.389 	 
C 	 22.3012 	 -5.94143 	 -109.707 	 
C 	 23.3477 	 -5.12456 	 -110.326 	 
C 	 23.9406 	 -4.21452 	 -109.434 	 
H 	 21.776 	 -6.79473 	 -110.168 	 
C 	 23.6941 	 -5.17611 	 -111.813 	 
H 	 24.7868 	 -5.30409 	 -111.921 	 
H 	 23.4987 	 -4.18355 	 -112.199 	 
C 	 22.9105 	 -6.15416 	 -112.748 	 
H 	 21.8348 	 -6.20306 	 -112.67 	 
H 	 23.1701 	 -7.17493 	 -112.439 	 
C 	 23.206 	 -5.99784 	 -114.229 	 
H 	 22.5929 	 -6.66696 	 -114.942 	 
H 	 24.2158 	 -6.32716 	 -114.474 	 
H 	 22.9992 	 -4.96404 	 -114.459 	 
H 	 28.0906 	 -1.64569 	 -108.661 	 
H 	 21.5189 	 -6.23988 	 -107.774 	 
