34

S 	 -90.9884 	 -29.9769 	 -57.1369 	 
C 	 -90.2069 	 -31.5027 	 -56.8128 	 
C 	 -89.1369 	 -31.3663 	 -55.9469 	 
C 	 -88.9388 	 -30.0064 	 -55.4595 	 
C 	 -89.986 	 -29.2032 	 -55.8822 	 
H 	 -88.2534 	 -29.5703 	 -54.7443 	 
C 	 -88.3189 	 -32.532 	 -55.505 	 
H 	 -87.2781 	 -32.429 	 -55.9275 	 
H 	 -88.6972 	 -33.4144 	 -56.0408 	 
C 	 -88.2242 	 -32.9491 	 -53.962 	 
H 	 -89.1465 	 -32.8674 	 -53.4946 	 
H 	 -87.8827 	 -33.9473 	 -53.8047 	 
C 	 -87.2764 	 -32.1062 	 -53.1787 	 
H 	 -87.4165 	 -31.0034 	 -53.1322 	 
H 	 -87.3395 	 -32.4125 	 -52.1741 	 
H 	 -86.3048 	 -32.4604 	 -53.4731 	 
S 	 -89.7365 	 -26.6559 	 -56.7546 	 
C 	 -90.4317 	 -25.3618 	 -55.8526 	 
C 	 -90.6467 	 -25.8229 	 -54.5162 	 
C 	 -90.3963 	 -27.2107 	 -54.3471 	 
C 	 -90.2038 	 -27.8482 	 -55.5571 	 
H 	 -91.0766 	 -25.1784 	 -53.7768 	 
C 	 -90.5309 	 -28.0091 	 -53.0057 	 
H 	 -90.6277 	 -29.108 	 -53.2416 	 
H 	 -91.5112 	 -27.8421 	 -52.6339 	 
C 	 -89.5153 	 -27.5948 	 -51.9503 	 
H 	 -89.3766 	 -26.456 	 -51.9855 	 
H 	 -88.5605 	 -28.0101 	 -52.2479 	 
C 	 -89.942 	 -28.0542 	 -50.5482 	 
H 	 -90.0254 	 -29.1416 	 -50.599 	 
H 	 -90.9034 	 -27.7414 	 -50.1288 	 
H 	 -89.1758 	 -27.8795 	 -49.798 	 
H 	 -90.5559 	 -32.3882 	 -57.2065 	 
H 	 -90.5803 	 -24.4189 	 -56.3647 	 
