34

S 	 -111.959 	 25.3276 	 -112.546 	 
C 	 -110.893 	 24.076 	 -111.751 	 
C 	 -110.784 	 22.981 	 -112.617 	 
C 	 -111.424 	 23.1886 	 -113.879 	 
C 	 -112.102 	 24.4287 	 -114.07 	 
H 	 -111.533 	 22.37 	 -114.583 	 
C 	 -110.039 	 21.6971 	 -112.27 	 
H 	 -109.949 	 21.0698 	 -113.167 	 
H 	 -110.692 	 21.1806 	 -111.636 	 
C 	 -108.811 	 21.9166 	 -111.458 	 
H 	 -109.059 	 22.5508 	 -110.608 	 
H 	 -108.525 	 20.9961 	 -110.951 	 
C 	 -107.612 	 22.4776 	 -112.154 	 
H 	 -107.73 	 23.5333 	 -112.408 	 
H 	 -106.773 	 22.5118 	 -111.381 	 
H 	 -107.166 	 21.7657 	 -112.858 	 
S 	 -114.516 	 25.5269 	 -114.896 	 
C 	 -115.028 	 24.9497 	 -116.472 	 
C 	 -114.022 	 24.4492 	 -117.272 	 
C 	 -112.763 	 24.3646 	 -116.565 	 
C 	 -112.946 	 24.7583 	 -115.223 	 
H 	 -114.238 	 24.1486 	 -118.321 	 
C 	 -111.556 	 23.6856 	 -117.219 	 
H 	 -111.927 	 23.1972 	 -118.119 	 
H 	 -111.069 	 22.9422 	 -116.63 	 
C 	 -110.398 	 24.7172 	 -117.495 	 
H 	 -110.853 	 25.565 	 -117.945 	 
H 	 -109.782 	 24.1841 	 -118.254 	 
C 	 -109.614 	 25.1865 	 -116.257 	 
H 	 -108.622 	 25.5148 	 -116.636 	 
H 	 -109.414 	 24.4149 	 -115.478 	 
H 	 -110.089 	 26.0795 	 -115.9 	 
H 	 -110.521 	 24.1395 	 -110.78 	 
H 	 -116.085 	 25.0702 	 -116.769 	 
