34

S 	 -95.4635 	 8.7323 	 -3.19134 	 
C 	 -96.9047 	 8.11542 	 -3.928 	 
C 	 -96.6449 	 7.43567 	 -5.0627 	 
C 	 -95.2533 	 7.16046 	 -5.20251 	 
C 	 -94.5137 	 7.62135 	 -4.15383 	 
H 	 -94.78 	 6.54669 	 -5.93772 	 
C 	 -97.6349 	 7.1186 	 -6.09547 	 
H 	 -98.5093 	 7.74112 	 -5.97042 	 
H 	 -97.9972 	 6.05081 	 -6.16247 	 
C 	 -97.2378 	 7.59434 	 -7.54303 	 
H 	 -96.9922 	 8.67333 	 -7.43656 	 
H 	 -96.3272 	 7.07414 	 -7.76837 	 
C 	 -98.2838 	 7.38959 	 -8.64214 	 
H 	 -98.4409 	 6.34465 	 -8.74404 	 
H 	 -99.186 	 7.83077 	 -8.44968 	 
H 	 -97.8589 	 7.80151 	 -9.51427 	 
S 	 -92.3539 	 5.89674 	 -3.20484 	 
C 	 -90.6863 	 6.55075 	 -3.2232 	 
C 	 -90.6346 	 7.80915 	 -3.69827 	 
C 	 -91.9738 	 8.33823 	 -4.07748 	 
C 	 -93.0395 	 7.44413 	 -3.8037 	 
H 	 -89.6533 	 8.22837 	 -3.82899 	 
C 	 -92.1524 	 9.69702 	 -4.72614 	 
H 	 -91.2418 	 10.253 	 -4.64718 	 
H 	 -92.9176 	 10.2715 	 -4.18864 	 
C 	 -92.5021 	 9.6058 	 -6.15863 	 
H 	 -93.094 	 8.75477 	 -6.31913 	 
H 	 -91.7165 	 9.40898 	 -6.84748 	 
C 	 -93.1175 	 10.9229 	 -6.66545 	 
H 	 -92.4932 	 11.774 	 -6.30227 	 
H 	 -94.0632 	 11.0319 	 -6.20541 	 
H 	 -93.1208 	 10.937 	 -7.77642 	 
H 	 -97.9448 	 8.56116 	 -3.88833 	 
H 	 -89.7666 	 5.99965 	 -2.91662 	 
