34

S 	 -41.2809 	 -53.3993 	 -71.4507 	 
C 	 -40.9199 	 -53.8482 	 -69.7866 	 
C 	 -41.3935 	 -52.9416 	 -68.8801 	 
C 	 -42.1019 	 -51.8593 	 -69.5036 	 
C 	 -42.1632 	 -52.012 	 -70.9075 	 
H 	 -42.6691 	 -51.0347 	 -69.0852 	 
C 	 -41.433 	 -53.0717 	 -67.3452 	 
H 	 -41.9237 	 -54.0947 	 -67.1235 	 
H 	 -42.1554 	 -52.378 	 -66.9141 	 
C 	 -40.0623 	 -53.1059 	 -66.6156 	 
H 	 -39.756 	 -54.1516 	 -66.7598 	 
H 	 -39.4004 	 -52.4411 	 -67.1089 	 
C 	 -40.1471 	 -52.7855 	 -65.0982 	 
H 	 -39.2315 	 -52.8103 	 -64.5248 	 
H 	 -40.5404 	 -51.7816 	 -64.8662 	 
H 	 -40.817 	 -53.3817 	 -64.4864 	 
S 	 -41.6744 	 -50.5096 	 -73.1278 	 
C 	 -42.872 	 -49.4486 	 -73.7286 	 
C 	 -44.0401 	 -49.4963 	 -73.0191 	 
C 	 -43.993 	 -50.4349 	 -71.9012 	 
C 	 -42.7553 	 -51.0161 	 -71.8449 	 
H 	 -44.69 	 -48.6668 	 -73.1049 	 
C 	 -45.1295 	 -50.614 	 -70.9623 	 
H 	 -45.6158 	 -49.6534 	 -70.7589 	 
H 	 -44.772 	 -50.8361 	 -69.9109 	 
C 	 -46.0664 	 -51.6559 	 -71.4818 	 
H 	 -45.5422 	 -52.5673 	 -71.8238 	 
H 	 -46.6682 	 -51.2361 	 -72.2971 	 
C 	 -47.1294 	 -52.0761 	 -70.498 	 
H 	 -46.7447 	 -52.4378 	 -69.5141 	 
H 	 -47.6658 	 -52.8792 	 -70.9279 	 
H 	 -47.944 	 -51.3765 	 -70.298 	 
H 	 -40.3934 	 -54.7853 	 -69.633 	 
H 	 -42.7279 	 -48.6273 	 -74.3906 	 
