34

S 	 -38.0755 	 -7.91344 	 17.9221 	 
C 	 -36.8284 	 -9.07119 	 18.4301 	 
C 	 -37.3031 	 -10.387 	 18.3139 	 
C 	 -38.74 	 -10.4059 	 18.31 	 
C 	 -39.3055 	 -9.19512 	 18.133 	 
H 	 -39.3476 	 -11.2802 	 18.3673 	 
C 	 -36.4812 	 -11.6506 	 18.4119 	 
H 	 -36.4178 	 -12.0645 	 19.4375 	 
H 	 -35.3894 	 -11.5522 	 18.1651 	 
C 	 -37.0547 	 -12.838 	 17.5588 	 
H 	 -36.287 	 -13.6386 	 17.7888 	 
H 	 -38.0484 	 -13.1832 	 17.8007 	 
C 	 -36.9863 	 -12.596 	 16.0797 	 
H 	 -36.115 	 -11.965 	 15.9062 	 
H 	 -37.0304 	 -13.4766 	 15.4497 	 
H 	 -37.7595 	 -11.9835 	 15.8981 	 
S 	 -41.1529 	 -7.27583 	 18.8811 	 
C 	 -42.8862 	 -7.60207 	 18.6637 	 
C 	 -43.0674 	 -8.77823 	 17.9826 	 
C 	 -41.8865 	 -9.57832 	 17.8738 	 
C 	 -40.7532 	 -8.92665 	 18.3012 	 
H 	 -44.0083 	 -9.07338 	 17.5178 	 
C 	 -41.9325 	 -10.8473 	 17.034 	 
H 	 -42.9231 	 -11.3771 	 17.1717 	 
H 	 -41.2096 	 -11.571 	 17.3641 	 
C 	 -41.8568 	 -10.5935 	 15.4739 	 
H 	 -42.5748 	 -9.87253 	 15.0399 	 
H 	 -42.0009 	 -11.4668 	 14.8136 	 
C 	 -40.4655 	 -10.3366 	 14.9324 	 
H 	 -39.7318 	 -11.0481 	 15.2634 	 
H 	 -40.116 	 -9.39046 	 15.3315 	 
H 	 -40.4196 	 -10.2744 	 13.8644 	 
H 	 -35.7179 	 -8.90653 	 18.4611 	 
H 	 -43.654 	 -6.8333 	 18.8572 	 
