34

S 	 -56.1952 	 -2.72801 	 -30.8585 	 
C 	 -56.0109 	 -3.36393 	 -29.248 	 
C 	 -55.4425 	 -2.48513 	 -28.3778 	 
C 	 -55.0691 	 -1.3035 	 -29.1418 	 
C 	 -55.5192 	 -1.22871 	 -30.3952 	 
H 	 -54.5075 	 -0.470753 	 -28.7705 	 
C 	 -54.8869 	 -2.75253 	 -27.0085 	 
H 	 -55.6852 	 -2.70627 	 -26.3028 	 
H 	 -54.2934 	 -1.88793 	 -26.67 	 
C 	 -54.1524 	 -4.08103 	 -26.8501 	 
H 	 -54.8378 	 -4.94057 	 -27.0234 	 
H 	 -53.3359 	 -4.09618 	 -27.5614 	 
C 	 -53.6007 	 -4.10871 	 -25.4031 	 
H 	 -53.1003 	 -5.01163 	 -25.1586 	 
H 	 -52.8603 	 -3.38488 	 -25.1605 	 
H 	 -54.435 	 -3.77708 	 -24.7713 	 
S 	 -54.264 	 -0.663132 	 -32.7748 	 
C 	 -53.989 	 0.936382 	 -33.2684 	 
C 	 -54.6818 	 1.77274 	 -32.45 	 
C 	 -55.501 	 1.21353 	 -31.4588 	 
C 	 -55.2962 	 -0.19217 	 -31.4287 	 
H 	 -54.7064 	 2.83266 	 -32.627 	 
C 	 -56.3242 	 2.05449 	 -30.5298 	 
H 	 -55.7757 	 2.90774 	 -30.1702 	 
H 	 -56.5506 	 1.38025 	 -29.6059 	 
C 	 -57.6583 	 2.57088 	 -31.0918 	 
H 	 -58.3304 	 3.15715 	 -30.3816 	 
H 	 -58.154 	 1.61892 	 -31.4508 	 
C 	 -57.4643 	 3.51713 	 -32.3708 	 
H 	 -56.728 	 4.28889 	 -32.2233 	 
H 	 -58.4151 	 3.98753 	 -32.6882 	 
H 	 -57.0706 	 2.92666 	 -33.2151 	 
H 	 -56.1135 	 -4.42965 	 -29.1104 	 
H 	 -53.353 	 1.16537 	 -34.1417 	 
