34

S 	 -130.986 	 16.5968 	 -16.5696 	 
C 	 -130.681 	 14.8944 	 -16.7854 	 
C 	 -131.843 	 14.3063 	 -17.2414 	 
C 	 -132.954 	 15.1849 	 -17.3416 	 
C 	 -132.662 	 16.4584 	 -16.9353 	 
H 	 -133.93 	 14.8161 	 -17.7042 	 
C 	 -132.035 	 12.8424 	 -17.4854 	 
H 	 -131.074 	 12.4342 	 -17.7091 	 
H 	 -132.645 	 12.7481 	 -18.3844 	 
C 	 -132.802 	 12.0263 	 -16.4351 	 
H 	 -132.796 	 11.035 	 -16.8071 	 
H 	 -132.253 	 11.9319 	 -15.5344 	 
C 	 -134.178 	 12.6273 	 -16.0628 	 
H 	 -134.674 	 11.8806 	 -15.495 	 
H 	 -134.055 	 13.4466 	 -15.3724 	 
H 	 -134.825 	 12.7556 	 -16.9796 	 
S 	 -133.635 	 18.2866 	 -15.18 	 
C 	 -134.884 	 19.3832 	 -15.7329 	 
C 	 -135.01 	 19.3999 	 -17.1283 	 
C 	 -134.141 	 18.4649 	 -17.7135 	 
C 	 -133.476 	 17.6616 	 -16.7961 	 
H 	 -135.614 	 20.1464 	 -17.5939 	 
C 	 -133.954 	 18.2587 	 -19.1616 	 
H 	 -134.67 	 17.5716 	 -19.5311 	 
H 	 -132.999 	 17.783 	 -19.3229 	 
C 	 -134.062 	 19.5425 	 -19.9794 	 
H 	 -133.217 	 20.2186 	 -19.7445 	 
H 	 -135.05 	 19.9305 	 -19.7298 	 
C 	 -133.975 	 19.3477 	 -21.4417 	 
H 	 -133.105 	 18.8004 	 -21.6688 	 
H 	 -133.964 	 20.2776 	 -21.9979 	 
H 	 -134.879 	 18.853 	 -21.7409 	 
H 	 -129.759 	 14.4215 	 -16.5921 	 
H 	 -135.473 	 20.0057 	 -15.0618 	 
