34

S 	 -68.0792 	 9.4358 	 -72.674 	 
C 	 -68.4801 	 10.9696 	 -73.3267 	 
C 	 -69.5165 	 11.5694 	 -72.6057 	 
C 	 -69.9212 	 10.8328 	 -71.475 	 
C 	 -69.2163 	 9.64984 	 -71.3658 	 
H 	 -70.7602 	 11.0985 	 -70.8721 	 
C 	 -70.1841 	 12.9399 	 -72.7934 	 
H 	 -70.967 	 13.0674 	 -72.1127 	 
H 	 -70.6414 	 13.1611 	 -73.7753 	 
C 	 -69.2123 	 14.178 	 -72.5932 	 
H 	 -68.3019 	 14.144 	 -73.1946 	 
H 	 -69.5874 	 15.1064 	 -72.9806 	 
C 	 -68.8117 	 14.4627 	 -71.1497 	 
H 	 -68.3109 	 15.4173 	 -71.0554 	 
H 	 -69.7893 	 14.4797 	 -70.5035 	 
H 	 -68.1309 	 13.6792 	 -70.7371 	 
S 	 -70.2435 	 7.2356 	 -70.8336 	 
C 	 -70.4486 	 6.82494 	 -69.1406 	 
C 	 -69.9742 	 7.7516 	 -68.224 	 
C 	 -69.444 	 8.88079 	 -68.9427 	 
C 	 -69.4294 	 8.66353 	 -70.3394 	 
H 	 -70.1746 	 7.51457 	 -67.2227 	 
C 	 -68.7819 	 10.1114 	 -68.2485 	 
H 	 -69.382 	 10.3687 	 -67.3247 	 
H 	 -68.8095 	 10.9805 	 -68.8779 	 
C 	 -67.2707 	 9.85957 	 -68.0201 	 
H 	 -66.7754 	 10.6973 	 -67.514 	 
H 	 -66.7972 	 10.0105 	 -68.9397 	 
C 	 -66.8674 	 8.57632 	 -67.2155 	 
H 	 -67.2877 	 8.62406 	 -66.2323 	 
H 	 -65.8462 	 8.53376 	 -67.2311 	 
H 	 -67.2404 	 7.62207 	 -67.6511 	 
H 	 -68.1459 	 11.324 	 -74.2831 	 
H 	 -70.9706 	 5.89849 	 -68.9188 	 
