34

S 	 -121.958 	 16.349 	 -24.8277 	 
C 	 -120.188 	 16.1412 	 -24.9173 	 
C 	 -119.478 	 17.222 	 -24.3365 	 
C 	 -120.448 	 18.2065 	 -23.9517 	 
C 	 -121.754 	 17.9701 	 -24.17 	 
H 	 -120.255 	 19.1063 	 -23.4537 	 
C 	 -117.981 	 17.4441 	 -24.1498 	 
H 	 -117.751 	 17.3613 	 -23.1342 	 
H 	 -117.854 	 18.5795 	 -24.1567 	 
C 	 -117.067 	 16.8122 	 -25.106 	 
H 	 -116.875 	 15.8135 	 -24.7554 	 
H 	 -117.574 	 16.8309 	 -26.05 	 
C 	 -115.704 	 17.4993 	 -25.2055 	 
H 	 -115.75 	 18.5115 	 -25.521 	 
H 	 -115.213 	 17.5811 	 -24.2566 	 
H 	 -114.898 	 17.0118 	 -25.772 	 
S 	 -123.619 	 18.9506 	 -22.3108 	 
C 	 -124.86 	 20.0595 	 -22.9121 	 
C 	 -124.579 	 20.4761 	 -24.1829 	 
C 	 -123.504 	 19.7794 	 -24.7805 	 
C 	 -122.871 	 18.8903 	 -23.9371 	 
H 	 -125.302 	 21.0272 	 -24.8089 	 
C 	 -123.238 	 19.9545 	 -26.2281 	 
H 	 -124.196 	 19.7999 	 -26.7261 	 
H 	 -122.542 	 19.1786 	 -26.5363 	 
C 	 -122.776 	 21.344 	 -26.5569 	 
H 	 -121.928 	 21.5449 	 -25.8096 	 
H 	 -123.448 	 22.1281 	 -26.2418 	 
C 	 -122.334 	 21.3574 	 -27.9756 	 
H 	 -122.101 	 22.3068 	 -28.3806 	 
H 	 -123.053 	 20.9733 	 -28.6888 	 
H 	 -121.466 	 20.7017 	 -28.0516 	 
H 	 -119.701 	 15.2955 	 -25.3387 	 
H 	 -125.709 	 20.409 	 -22.3201 	 
