34

S 	 -39.533 	 -49.9877 	 -74.4924 	 
C 	 -40.7629 	 -49.0198 	 -75.2532 	 
C 	 -40.2794 	 -47.7549 	 -75.56 	 
C 	 -38.8446 	 -47.655 	 -75.3366 	 
C 	 -38.2976 	 -48.7833 	 -74.8083 	 
H 	 -38.2584 	 -46.7212 	 -75.44 	 
C 	 -41.0765 	 -46.6275 	 -76.1449 	 
H 	 -42.1023 	 -46.9046 	 -76.1712 	 
H 	 -40.6701 	 -46.4916 	 -77.1881 	 
C 	 -40.9995 	 -45.2499 	 -75.5275 	 
H 	 -39.9491 	 -44.9646 	 -75.4699 	 
H 	 -41.4084 	 -44.4398 	 -76.1858 	 
C 	 -41.683 	 -45.122 	 -74.0919 	 
H 	 -41.2603 	 -44.2664 	 -73.4773 	 
H 	 -42.7665 	 -44.9395 	 -74.2015 	 
H 	 -41.5746 	 -46.0075 	 -73.4683 	 
S 	 -36.7212 	 -49.425 	 -72.7206 	 
C 	 -35.0565 	 -48.9446 	 -72.6152 	 
C 	 -34.6735 	 -48.5357 	 -73.86 	 
C 	 -35.7311 	 -48.3347 	 -74.7451 	 
C 	 -36.9251 	 -48.8489 	 -74.3154 	 
H 	 -33.6838 	 -48.3016 	 -74.0697 	 
C 	 -35.4427 	 -47.8534 	 -76.1646 	 
H 	 -34.7206 	 -47.0111 	 -76.126 	 
H 	 -36.35 	 -47.4576 	 -76.6442 	 
C 	 -34.978 	 -48.9838 	 -77.1227 	 
H 	 -34.0101 	 -49.2955 	 -76.9317 	 
H 	 -34.9875 	 -48.6244 	 -78.1976 	 
C 	 -35.8969 	 -50.2401 	 -77.0951 	 
H 	 -35.6501 	 -50.9147 	 -77.8977 	 
H 	 -36.989 	 -50.0292 	 -77.2072 	 
H 	 -35.7891 	 -50.6265 	 -76.0861 	 
H 	 -41.7684 	 -49.2954 	 -75.3791 	 
H 	 -34.3536 	 -49.1201 	 -71.7941 	 
