34

S 	 -83.8592 	 -11.2183 	 -56.2837 	 
C 	 -82.9728 	 -9.75986 	 -56.74 	 
C 	 -82.5083 	 -9.89483 	 -58.0786 	 
C 	 -82.8612 	 -11.1375 	 -58.6503 	 
C 	 -83.6366 	 -11.9383 	 -57.8771 	 
H 	 -82.538 	 -11.3919 	 -59.6757 	 
C 	 -81.6566 	 -8.89908 	 -58.8293 	 
H 	 -81.8648 	 -8.01583 	 -58.2409 	 
H 	 -82.1678 	 -8.72603 	 -59.7925 	 
C 	 -80.1594 	 -9.16525 	 -58.7298 	 
H 	 -79.8135 	 -8.97529 	 -57.7222 	 
H 	 -79.9862 	 -10.2597 	 -58.9032 	 
C 	 -79.351 	 -8.34645 	 -59.687 	 
H 	 -79.7015 	 -8.67132 	 -60.7235 	 
H 	 -79.6005 	 -7.23721 	 -59.5716 	 
H 	 -78.3216 	 -8.59073 	 -59.5136 	 
S 	 -83.2525 	 -14.4782 	 -56.8488 	 
C 	 -83.7792 	 -15.8071 	 -57.7635 	 
C 	 -84.2358 	 -15.3588 	 -58.9804 	 
C 	 -84.1206 	 -13.9636 	 -59.2225 	 
C 	 -83.7766 	 -13.3588 	 -58.0827 	 
H 	 -84.6938 	 -16.0706 	 -59.6536 	 
C 	 -84.632 	 -13.29 	 -60.4498 	 
H 	 -84.7428 	 -12.1655 	 -60.4543 	 
H 	 -85.673 	 -13.6393 	 -60.6374 	 
C 	 -83.8693 	 -13.6791 	 -61.7274 	 
H 	 -84.3533 	 -13.4013 	 -62.6769 	 
H 	 -83.87 	 -14.7395 	 -61.7513 	 
C 	 -82.3625 	 -13.3394 	 -61.8395 	 
H 	 -81.6785 	 -13.6469 	 -60.9705 	 
H 	 -82.1802 	 -12.248 	 -61.9889 	 
H 	 -81.9703 	 -13.8795 	 -62.7024 	 
H 	 -82.7459 	 -8.91803 	 -56.0789 	 
H 	 -84.0773 	 -16.6796 	 -57.336 	 
