34

S 	 -37.9947 	 5.02855 	 3.77365 	 
C 	 -37.2787 	 4.18703 	 2.40356 	 
C 	 -36.2112 	 3.37505 	 2.73686 	 
C 	 -36.1179 	 3.21925 	 4.11928 	 
C 	 -36.8401 	 4.17022 	 4.8592 	 
H 	 -35.4138 	 2.65207 	 4.64679 	 
C 	 -35.3275 	 2.544 	 1.83394 	 
H 	 -34.5898 	 1.9892 	 2.40356 	 
H 	 -34.7942 	 3.21446 	 1.19395 	 
C 	 -36.0438 	 1.61511 	 0.876817 	 
H 	 -36.5036 	 0.896638 	 1.58229 	 
H 	 -36.8573 	 2.07987 	 0.367042 	 
C 	 -35.1274 	 0.886257 	 -0.108652 	 
H 	 -35.5056 	 -0.0977905 	 -0.456509 	 
H 	 -35.0656 	 1.58227 	 -0.917219 	 
H 	 -34.156 	 0.778203 	 0.320048 	 
S 	 -34.9587 	 4.37635 	 6.85439 	 
C 	 -35.4353 	 4.6106 	 8.55501 	 
C 	 -36.823 	 4.70416 	 8.62363 	 
C 	 -37.4996 	 4.62522 	 7.35567 	 
C 	 -36.6733 	 4.31795 	 6.2857 	 
H 	 -37.3112 	 4.85865 	 9.54735 	 
C 	 -39.0453 	 4.73605 	 7.33919 	 
H 	 -39.2725 	 4.09216 	 6.46971 	 
H 	 -39.3365 	 5.76904 	 7.04922 	 
C 	 -39.828 	 4.46479 	 8.54471 	 
H 	 -40.8451 	 4.71199 	 8.4149 	 
H 	 -39.4929 	 5.13297 	 9.31911 	 
C 	 -39.7622 	 3.10922 	 9.05162 	 
H 	 -39.9017 	 2.46613 	 8.20806 	 
H 	 -40.424 	 2.84863 	 9.87516 	 
H 	 -38.7632 	 2.78656 	 9.42057 	 
H 	 -37.4224 	 4.3073 	 1.34964 	 
H 	 -34.7262 	 4.63183 	 9.41116 	 
