34

S 	 -122.278 	 60.8595 	 -35.5892 	 
C 	 -123.61 	 61.9397 	 -35.2633 	 
C 	 -123.438 	 63.2411 	 -35.6874 	 
C 	 -122.078 	 63.4224 	 -36.1661 	 
C 	 -121.374 	 62.2665 	 -36.1125 	 
H 	 -121.591 	 64.2807 	 -36.5611 	 
C 	 -124.382 	 64.3654 	 -35.4492 	 
H 	 -123.856 	 65.1908 	 -34.9858 	 
H 	 -125.107 	 64.043 	 -34.6736 	 
C 	 -125.085 	 64.9817 	 -36.6681 	 
H 	 -125.753 	 65.7597 	 -36.371 	 
H 	 -124.361 	 65.3668 	 -37.3736 	 
C 	 -125.986 	 64.0649 	 -37.4197 	 
H 	 -125.388 	 63.178 	 -37.6851 	 
H 	 -126.819 	 63.9047 	 -36.9409 	 
H 	 -126.313 	 64.5386 	 -38.3979 	 
S 	 -120.191 	 62.0365 	 -38.5755 	 
C 	 -118.481 	 61.8362 	 -38.6267 	 
C 	 -117.927 	 61.8283 	 -37.3764 	 
C 	 -118.806 	 61.9534 	 -36.2771 	 
C 	 -120.118 	 62.1241 	 -36.7983 	 
H 	 -116.909 	 61.5633 	 -37.1852 	 
C 	 -118.398 	 61.8522 	 -34.8298 	 
H 	 -117.544 	 61.1467 	 -34.6089 	 
H 	 -119.056 	 61.2912 	 -34.1562 	 
C 	 -117.999 	 63.1072 	 -34.107 	 
H 	 -118.631 	 64.0093 	 -34.2519 	 
H 	 -117.079 	 63.4728 	 -34.637 	 
C 	 -117.587 	 62.8877 	 -32.6219 	 
H 	 -116.897 	 62.0528 	 -32.4259 	 
H 	 -118.517 	 62.7084 	 -32.1097 	 
H 	 -117.189 	 63.7964 	 -32.1938 	 
H 	 -124.395 	 61.6113 	 -34.6034 	 
H 	 -117.924 	 61.4601 	 -39.5414 	 
