34

S 	 21.1904 	 -8.70503 	 -118.891 	 
C 	 21.8574 	 -9.11017 	 -117.349 	 
C 	 21.8643 	 -8.10288 	 -116.456 	 
C 	 21.1096 	 -7.01655 	 -117.004 	 
C 	 20.6395 	 -7.1104 	 -118.288 	 
H 	 21.0105 	 -6.05321 	 -116.484 	 
C 	 22.3746 	 -8.05526 	 -115.011 	 
H 	 22.2994 	 -7.02845 	 -114.789 	 
H 	 23.406 	 -8.41661 	 -115.042 	 
C 	 21.473 	 -8.82246 	 -114.039 	 
H 	 20.4682 	 -8.37864 	 -114.004 	 
H 	 21.2554 	 -9.91872 	 -114.303 	 
C 	 22.1223 	 -8.80501 	 -112.655 	 
H 	 22.1344 	 -7.80293 	 -112.298 	 
H 	 21.672 	 -9.6352 	 -112.014 	 
H 	 23.1276 	 -9.09088 	 -112.819 	 
S 	 20.6241 	 -5.79295 	 -120.82 	 
C 	 19.4966 	 -4.51647 	 -121.089 	 
C 	 18.6102 	 -4.38982 	 -120.05 	 
C 	 18.8819 	 -5.26445 	 -118.928 	 
C 	 19.9374 	 -6.13122 	 -119.187 	 
H 	 17.9694 	 -3.53305 	 -120.198 	 
C 	 18.0135 	 -5.20354 	 -117.655 	 
H 	 18.2282 	 -6.15815 	 -117.108 	 
H 	 16.9719 	 -5.21566 	 -117.754 	 
C 	 18.4831 	 -3.94826 	 -116.899 	 
H 	 18.2177 	 -3.01532 	 -117.531 	 
H 	 19.5811 	 -3.85935 	 -116.757 	 
C 	 17.7444 	 -3.83762 	 -115.5 	 
H 	 18.014 	 -2.82292 	 -115.053 	 
H 	 17.9951 	 -4.62725 	 -114.864 	 
H 	 16.715 	 -4.04071 	 -115.835 	 
H 	 22.2745 	 -10.0868 	 -117.128 	 
H 	 19.4973 	 -3.97323 	 -122.055 	 
