34

S 	 -111.101 	 50.1102 	 -86.4941 	 
C 	 -109.816 	 49.5564 	 -87.6207 	 
C 	 -110.058 	 50.0309 	 -88.8991 	 
C 	 -111.343 	 50.6878 	 -89.0137 	 
C 	 -112.027 	 50.7737 	 -87.7998 	 
H 	 -111.832 	 51.0152 	 -89.9808 	 
C 	 -109.123 	 49.9385 	 -90.1149 	 
H 	 -109.464 	 50.6167 	 -90.8819 	 
H 	 -109.108 	 48.9587 	 -90.478 	 
C 	 -107.696 	 50.304 	 -89.8829 	 
H 	 -107.685 	 51.3298 	 -89.6081 	 
H 	 -107.362 	 49.7548 	 -88.9397 	 
C 	 -106.767 	 49.8991 	 -91.0521 	 
H 	 -106.975 	 48.8088 	 -91.2113 	 
H 	 -106.926 	 50.5491 	 -91.9086 	 
H 	 -105.674 	 50.1169 	 -90.8759 	 
S 	 -114.576 	 50.5848 	 -86.9815 	 
C 	 -115.685 	 51.9008 	 -87.0927 	 
C 	 -115.044 	 52.985 	 -87.6252 	 
C 	 -113.646 	 52.7587 	 -87.9056 	 
C 	 -113.254 	 51.4501 	 -87.5586 	 
H 	 -115.664 	 53.9695 	 -87.8528 	 
C 	 -112.774 	 53.897 	 -88.4187 	 
H 	 -113.458 	 54.5585 	 -88.9117 	 
H 	 -112.016 	 53.5172 	 -89.1295 	 
C 	 -112.144 	 54.685 	 -87.298 	 
H 	 -111.267 	 55.3259 	 -87.578 	 
H 	 -111.773 	 54.0137 	 -86.4891 	 
C 	 -113.152 	 55.6753 	 -86.5851 	 
H 	 -113.913 	 55.0114 	 -86.1605 	 
H 	 -113.581 	 56.3403 	 -87.3071 	 
H 	 -112.588 	 56.2225 	 -85.8304 	 
H 	 -108.852 	 49.1419 	 -87.2923 	 
H 	 -116.763 	 51.7696 	 -86.9895 	 
