34

S 	 -100.361 	 17.3357 	 -125.117 	 
C 	 -99.1353 	 18.4874 	 -124.962 	 
C 	 -98.841 	 18.8416 	 -123.651 	 
C 	 -99.8055 	 18.2155 	 -122.755 	 
C 	 -100.771 	 17.4331 	 -123.398 	 
H 	 -99.8286 	 18.3236 	 -121.662 	 
C 	 -97.7641 	 19.8627 	 -123.236 	 
H 	 -98.2909 	 20.7106 	 -122.701 	 
H 	 -97.1402 	 20.28 	 -124.077 	 
C 	 -96.8697 	 19.3547 	 -122.211 	 
H 	 -97.3869 	 18.7141 	 -121.448 	 
H 	 -96.0925 	 18.6056 	 -122.623 	 
C 	 -96.0865 	 20.5138 	 -121.661 	 
H 	 -96.7865 	 21.1897 	 -121.118 	 
H 	 -95.2778 	 20.0947 	 -121.051 	 
H 	 -95.6062 	 21.0442 	 -122.482 	 
S 	 -103.226 	 17.5308 	 -122.424 	 
C 	 -103.966 	 16.0718 	 -121.825 	 
C 	 -103.186 	 14.9907 	 -122.002 	 
C 	 -101.963 	 15.2471 	 -122.673 	 
C 	 -101.785 	 16.6004 	 -122.861 	 
H 	 -103.579 	 13.9781 	 -121.839 	 
C 	 -101.008 	 14.1444 	 -123 	 
H 	 -101.4 	 13.3913 	 -122.234 	 
H 	 -99.979 	 14.4252 	 -122.674 	 
C 	 -100.967 	 13.5896 	 -124.412 	 
H 	 -100.49 	 14.2855 	 -125.111 	 
H 	 -101.912 	 13.4649 	 -124.798 	 
C 	 -100.254 	 12.2579 	 -124.654 	 
H 	 -100.725 	 11.4657 	 -124.126 	 
H 	 -99.1077 	 12.2507 	 -124.535 	 
H 	 -100.455 	 11.9148 	 -125.65 	 
H 	 -98.6535 	 18.982 	 -125.712 	 
H 	 -105.007 	 16.0198 	 -121.439 	 
