34

S 	 -139.157 	 9.56033 	 2.78868 	 
C 	 -140.286 	 9.35575 	 1.4276 	 
C 	 -141.619 	 9.55003 	 1.79712 	 
C 	 -141.759 	 9.60796 	 3.22775 	 
C 	 -140.546 	 9.68457 	 3.91398 	 
H 	 -142.615 	 9.69247 	 3.82121 	 
C 	 -142.739 	 9.55011 	 0.751184 	 
H 	 -143.737 	 9.43382 	 1.10884 	 
H 	 -142.525 	 8.63384 	 0.121431 	 
C 	 -142.684 	 10.6827 	 -0.217255 	 
H 	 -142.822 	 11.5463 	 0.394714 	 
H 	 -141.723 	 10.7865 	 -0.662395 	 
C 	 -143.791 	 10.6277 	 -1.32007 	 
H 	 -143.918 	 9.56495 	 -1.61119 	 
H 	 -144.762 	 10.8954 	 -0.931316 	 
H 	 -143.601 	 11.2895 	 -2.10757 	 
S 	 -140.565 	 11.6603 	 5.93476 	 
C 	 -140.137 	 11.2328 	 7.50254 	 
C 	 -139.985 	 9.82045 	 7.61159 	 
C 	 -140.037 	 9.12031 	 6.37015 	 
C 	 -140.354 	 9.94795 	 5.32812 	 
H 	 -139.792 	 9.47562 	 8.58171 	 
C 	 -139.842 	 7.61378 	 6.26617 	 
H 	 -140.533 	 7.25437 	 5.45361 	 
H 	 -140.282 	 7.11094 	 7.10778 	 
C 	 -138.325 	 7.22555 	 6.14075 	 
H 	 -137.667 	 7.90472 	 6.62062 	 
H 	 -138.019 	 7.23932 	 5.04562 	 
C 	 -138.017 	 5.83499 	 6.69496 	 
H 	 -138.907 	 5.09171 	 6.61549 	 
H 	 -137.699 	 5.74584 	 7.7284 	 
H 	 -137.151 	 5.42727 	 6.19876 	 
H 	 -139.926 	 9.0555 	 0.426912 	 
H 	 -140.104 	 12.0084 	 8.29452 	 
