34

S 	 -40.6504 	 18.0952 	 -100.53 	 
C 	 -39.3625 	 17.2177 	 -101.509 	 
C 	 -38.6702 	 16.3822 	 -100.681 	 
C 	 -39.2216 	 16.2916 	 -99.3612 	 
C 	 -40.2023 	 17.2192 	 -99.0733 	 
H 	 -38.8853 	 15.6927 	 -98.5276 	 
C 	 -37.4405 	 15.6214 	 -101.17 	 
H 	 -37.052 	 16.0681 	 -102.087 	 
H 	 -37.8471 	 14.6082 	 -101.546 	 
C 	 -36.2856 	 15.3311 	 -100.11 	 
H 	 -36.634 	 14.4591 	 -99.4574 	 
H 	 -35.4572 	 14.9456 	 -100.629 	 
C 	 -35.9797 	 16.5456 	 -99.2426 	 
H 	 -35.748 	 17.4105 	 -99.8886 	 
H 	 -36.7645 	 16.805 	 -98.5595 	 
H 	 -35.119 	 16.3528 	 -98.5499 	 
S 	 -40.6 	 19.2399 	 -97.3496 	 
C 	 -41.227 	 18.9665 	 -95.6957 	 
C 	 -41.2719 	 17.5879 	 -95.5107 	 
C 	 -41.0756 	 16.793 	 -96.6607 	 
C 	 -40.7471 	 17.5967 	 -97.7257 	 
H 	 -41.437 	 17.1742 	 -94.507 	 
C 	 -41.3205 	 15.2973 	 -96.6727 	 
H 	 -41.2752 	 14.854 	 -97.7486 	 
H 	 -42.3785 	 15.1787 	 -96.3657 	 
C 	 -40.4912 	 14.6007 	 -95.717 	 
H 	 -40.6965 	 14.8917 	 -94.7337 	 
H 	 -39.4881 	 14.789 	 -96.0233 	 
C 	 -40.7899 	 13.1105 	 -95.7683 	 
H 	 -40.443 	 12.7065 	 -96.7204 	 
H 	 -41.8781 	 12.8856 	 -95.6676 	 
H 	 -40.2046 	 12.6408 	 -94.9256 	 
H 	 -39.2326 	 17.4962 	 -102.579 	 
H 	 -41.1756 	 19.7438 	 -94.9341 	 
