34

S 	 -112.672 	 17.6624 	 -119.204 	 
C 	 -113.397 	 18.5931 	 -117.91 	 
C 	 -112.826 	 19.8394 	 -117.673 	 
C 	 -111.841 	 20.1087 	 -118.679 	 
C 	 -111.638 	 19.0652 	 -119.612 	 
H 	 -111.218 	 21.0494 	 -118.725 	 
C 	 -113.395 	 20.8354 	 -116.704 	 
H 	 -114.244 	 20.5153 	 -116.107 	 
H 	 -113.643 	 21.6821 	 -117.246 	 
C 	 -112.298 	 21.0602 	 -115.622 	 
H 	 -111.384 	 21.3979 	 -116.142 	 
H 	 -112.609 	 21.9139 	 -115.001 	 
C 	 -112.164 	 19.8125 	 -114.732 	 
H 	 -111.299 	 19.8999 	 -114.068 	 
H 	 -113.07 	 19.7208 	 -114.085 	 
H 	 -112.144 	 18.8391 	 -115.137 	 
S 	 -111.27 	 18.5631 	 -122.204 	 
C 	 -109.779 	 18.7669 	 -123.001 	 
C 	 -108.798 	 18.8923 	 -122.071 	 
C 	 -109.293 	 19.1124 	 -120.724 	 
C 	 -110.612 	 18.8875 	 -120.605 	 
H 	 -107.786 	 19.1094 	 -122.407 	 
C 	 -108.22 	 19.3604 	 -119.653 	 
H 	 -108.455 	 20.3255 	 -119.301 	 
H 	 -107.266 	 19.4819 	 -120.149 	 
C 	 -108.153 	 18.3492 	 -118.513 	 
H 	 -108.288 	 17.3376 	 -119.026 	 
H 	 -109.11 	 18.5121 	 -118.009 	 
C 	 -106.963 	 18.5637 	 -117.599 	 
H 	 -106.914 	 17.8516 	 -116.798 	 
H 	 -107.002 	 19.5251 	 -117.049 	 
H 	 -105.966 	 18.6586 	 -118.109 	 
H 	 -114.362 	 18.4087 	 -117.493 	 
H 	 -109.529 	 18.6019 	 -124.004 	 
