34

S 	 -40.8379 	 20.0231 	 21.4013 	 
C 	 -41.6836 	 18.7366 	 22.1975 	 
C 	 -41.5377 	 18.7537 	 23.5698 	 
C 	 -40.5022 	 19.7 	 23.9288 	 
C 	 -40.0709 	 20.4974 	 22.8847 	 
H 	 -40.1731 	 19.901 	 24.9246 	 
C 	 -42.0332 	 17.7686 	 24.6287 	 
H 	 -41.8093 	 18.1473 	 25.6547 	 
H 	 -41.5513 	 16.8178 	 24.4252 	 
C 	 -43.5309 	 17.5617 	 24.5089 	 
H 	 -44.0551 	 18.4559 	 24.6103 	 
H 	 -43.8089 	 17.1427 	 23.5714 	 
C 	 -44.1171 	 16.4924 	 25.415 	 
H 	 -45.2294 	 16.513 	 25.3634 	 
H 	 -43.7991 	 15.5187 	 25.1856 	 
H 	 -43.878 	 16.7289 	 26.4919 	 
S 	 -39.2624 	 23.0056 	 22.1351 	 
C 	 -37.69 	 23.5694 	 22.7108 	 
C 	 -37.0331 	 22.643 	 23.4595 	 
C 	 -37.7803 	 21.4271 	 23.6345 	 
C 	 -39.0241 	 21.4713 	 22.9974 	 
H 	 -36.1263 	 22.839 	 23.9403 	 
C 	 -37.2737 	 20.1861 	 24.4528 	 
H 	 -37.2284 	 19.3399 	 23.7713 	 
H 	 -38.0703 	 19.9861 	 25.2328 	 
C 	 -35.8906 	 20.3368 	 25.1993 	 
H 	 -35.176 	 20.7364 	 24.4608 	 
H 	 -35.5213 	 19.3347 	 25.4941 	 
C 	 -36.0393 	 21.227 	 26.4299 	 
H 	 -36.6517 	 22.0934 	 26.1962 	 
H 	 -34.9574 	 21.5754 	 26.7031 	 
H 	 -36.4736 	 20.7985 	 27.3539 	 
H 	 -42.3364 	 18.0942 	 21.6083 	 
H 	 -37.2354 	 24.4738 	 22.3195 	 
