34

S 	 -48.1236 	 13.1103 	 -96.5161 	 
C 	 -48.7106 	 11.6499 	 -95.9435 	 
C 	 -49.342 	 10.8545 	 -96.8697 	 
C 	 -49.4542 	 11.5535 	 -98.1284 	 
C 	 -48.8887 	 12.8269 	 -98.0921 	 
H 	 -49.8729 	 11.3249 	 -99.0515 	 
C 	 -49.7616 	 9.36796 	 -96.7502 	 
H 	 -50.2078 	 9.19275 	 -95.7547 	 
H 	 -48.8767 	 8.73366 	 -96.6933 	 
C 	 -50.6212 	 8.72899 	 -97.8659 	 
H 	 -50.1231 	 8.87934 	 -98.8313 	 
H 	 -50.61 	 7.6214 	 -97.732 	 
C 	 -52.0695 	 9.16296 	 -97.9649 	 
H 	 -52.1422 	 10.17 	 -98.3857 	 
H 	 -52.5822 	 8.35393 	 -98.4699 	 
H 	 -52.4256 	 9.19311 	 -96.9585 	 
S 	 -49.5199 	 15.5012 	 -98.5936 	 
C 	 -49.4699 	 16.0325 	 -100.282 	 
C 	 -49.0203 	 15.0669 	 -101.136 	 
C 	 -48.6829 	 13.8107 	 -100.467 	 
C 	 -48.952 	 13.8635 	 -99.1011 	 
H 	 -48.9772 	 15.3144 	 -102.234 	 
C 	 -48.1949 	 12.602 	 -101.266 	 
H 	 -47.7938 	 11.8338 	 -100.613 	 
H 	 -47.5131 	 12.8914 	 -102.025 	 
C 	 -49.3078 	 11.96 	 -102.143 	 
H 	 -49.5683 	 12.6419 	 -102.954 	 
H 	 -50.1756 	 11.6835 	 -101.543 	 
C 	 -48.8585 	 10.6561 	 -102.708 	 
H 	 -49.557 	 10.1289 	 -103.363 	 
H 	 -48.5022 	 9.88949 	 -101.978 	 
H 	 -47.899 	 10.7559 	 -103.207 	 
H 	 -48.544 	 11.3001 	 -94.9401 	 
H 	 -49.6729 	 17.0434 	 -100.523 	 
