34

S 	 33.2938 	 -3.90964 	 -122.372 	 
C 	 31.725 	 -3.20208 	 -122.244 	 
C 	 31.2662 	 -3.19217 	 -120.944 	 
C 	 32.1394 	 -3.85907 	 -120.057 	 
C 	 33.2707 	 -4.44956 	 -120.703 	 
H 	 32.1358 	 -4.00418 	 -119 	 
C 	 29.9071 	 -2.71986 	 -120.449 	 
H 	 29.1412 	 -2.59822 	 -121.28 	 
H 	 30.1556 	 -1.73335 	 -120.082 	 
C 	 29.2493 	 -3.57804 	 -119.378 	 
H 	 29.144 	 -4.56848 	 -119.809 	 
H 	 29.7964 	 -3.87626 	 -118.578 	 
C 	 27.9366 	 -2.99948 	 -118.876 	 
H 	 28.0925 	 -1.94314 	 -118.622 	 
H 	 27.2226 	 -3.13225 	 -119.673 	 
H 	 27.4356 	 -3.41172 	 -118.117 	 
S 	 35.2152 	 -6.09667 	 -121.542 	 
C 	 36.1897 	 -7.04766 	 -120.473 	 
C 	 35.7761 	 -6.87705 	 -119.168 	 
C 	 34.8516 	 -5.81104 	 -118.998 	 
C 	 34.3075 	 -5.38473 	 -120.251 	 
H 	 36.2623 	 -7.46981 	 -118.461 	 
C 	 34.3066 	 -5.49916 	 -117.66 	 
H 	 34.6171 	 -6.34679 	 -117.063 	 
H 	 33.1993 	 -5.53989 	 -117.646 	 
C 	 34.9264 	 -4.2288 	 -117.08 	 
H 	 34.8686 	 -3.40747 	 -117.782 	 
H 	 35.968 	 -4.36244 	 -116.934 	 
C 	 34.4259 	 -3.97341 	 -115.646 	 
H 	 35.0016 	 -3.19483 	 -115.205 	 
H 	 34.6107 	 -4.75455 	 -115.061 	 
H 	 33.405 	 -3.71862 	 -115.577 	 
H 	 31.2173 	 -2.64262 	 -123.09 	 
H 	 36.8286 	 -7.85639 	 -120.74 	 
