34

S 	 -71.804 	 1.84244 	 13.6583 	 
C 	 -72.5346 	 3.28253 	 12.9905 	 
C 	 -73.853 	 3.35814 	 13.376 	 
C 	 -74.316 	 2.2136 	 14.1789 	 
C 	 -73.2381 	 1.36631 	 14.4886 	 
H 	 -75.352 	 1.9163 	 14.4924 	 
C 	 -74.7844 	 4.50672 	 12.947 	 
H 	 -75.7853 	 4.18931 	 12.7821 	 
H 	 -74.4467 	 4.75873 	 11.983 	 
C 	 -74.8628 	 5.70897 	 13.8205 	 
H 	 -73.9197 	 6.27911 	 13.9025 	 
H 	 -75.4144 	 6.5478 	 13.3211 	 
C 	 -75.4224 	 5.26896 	 15.1526 	 
H 	 -76.2371 	 4.56187 	 15.0539 	 
H 	 -74.6937 	 4.80629 	 15.8066 	 
H 	 -75.7561 	 6.0996 	 15.6944 	 
S 	 -73.0321 	 -1.30888 	 14.5881 	 
C 	 -73.2478 	 -2.18354 	 16.1114 	 
C 	 -73.5284 	 -1.32678 	 17.1521 	 
C 	 -73.5002 	 0.0660524 	 16.7076 	 
C 	 -73.2632 	 0.23786 	 15.3483 	 
H 	 -73.4795 	 -1.71064 	 18.1794 	 
C 	 -73.5158 	 1.17785 	 17.7281 	 
H 	 -74.2963 	 0.839404 	 18.4858 	 
H 	 -73.9097 	 2.07707 	 17.2434 	 
C 	 -72.0992 	 1.60026 	 18.294 	 
H 	 -71.4259 	 1.94257 	 17.5231 	 
H 	 -71.7566 	 0.76498 	 18.8715 	 
C 	 -72.284 	 2.82751 	 19.1748 	 
H 	 -71.2968 	 3.17249 	 19.4606 	 
H 	 -72.951 	 2.61142 	 20.0302 	 
H 	 -72.8038 	 3.64417 	 18.6701 	 
H 	 -72.0212 	 3.9786 	 12.3705 	 
H 	 -73.1612 	 -3.24013 	 16.2086 	 
