34

S 	 -80.8425 	 -39.1594 	 -75.4199 	 
C 	 -82.0794 	 -40.1808 	 -76.0875 	 
C 	 -82.888 	 -39.4881 	 -76.9285 	 
C 	 -82.5997 	 -38.068 	 -76.8989 	 
C 	 -81.6028 	 -37.7383 	 -76.0551 	 
H 	 -83.1069 	 -37.4044 	 -77.4828 	 
C 	 -84.1505 	 -39.9506 	 -77.5329 	 
H 	 -84.9442 	 -39.798 	 -76.7848 	 
H 	 -84.0372 	 -41.0704 	 -77.6226 	 
C 	 -84.6396 	 -39.4081 	 -78.8673 	 
H 	 -85.4089 	 -40.0145 	 -79.3573 	 
H 	 -84.984 	 -38.4116 	 -78.7609 	 
C 	 -83.4351 	 -39.2773 	 -79.8904 	 
H 	 -82.883 	 -40.1856 	 -79.8622 	 
H 	 -83.8812 	 -39.0613 	 -80.9172 	 
H 	 -82.8028 	 -38.4328 	 -79.6276 	 
S 	 -81.0573 	 -36.0504 	 -74.0136 	 
C 	 -80.5108 	 -34.402 	 -74.3242 	 
C 	 -80.556 	 -34.1006 	 -75.6803 	 
C 	 -80.8293 	 -35.2428 	 -76.4887 	 
C 	 -81.1539 	 -36.3962 	 -75.7204 	 
H 	 -80.3545 	 -33.0674 	 -75.935 	 
C 	 -80.7724 	 -35.1885 	 -77.9844 	 
H 	 -81.4306 	 -34.3331 	 -78.2237 	 
H 	 -81.2003 	 -36.0731 	 -78.4368 	 
C 	 -79.424 	 -34.9063 	 -78.6474 	 
H 	 -78.7922 	 -35.701 	 -78.2957 	 
H 	 -79.108 	 -33.9393 	 -78.3189 	 
C 	 -79.4417 	 -34.965 	 -80.1745 	 
H 	 -79.7383 	 -34.0616 	 -80.6291 	 
H 	 -80.1762 	 -35.6992 	 -80.3927 	 
H 	 -78.4175 	 -35.0232 	 -80.447 	 
H 	 -82.0462 	 -41.2105 	 -75.9725 	 
H 	 -80.3216 	 -33.7193 	 -73.534 	 
