34

S 	 -43.7699 	 -5.07149 	 -15.5312 	 
C 	 -44.7557 	 -4.14668 	 -14.4998 	 
C 	 -44.0536 	 -3.17948 	 -13.7496 	 
C 	 -42.6537 	 -3.23198 	 -14.116 	 
C 	 -42.2658 	 -4.14115 	 -15.0836 	 
H 	 -41.8628 	 -2.61618 	 -13.7135 	 
C 	 -44.5782 	 -2.25505 	 -12.6981 	 
H 	 -44.1481 	 -1.25873 	 -12.9444 	 
H 	 -44.0094 	 -2.57004 	 -11.7972 	 
C 	 -46.1451 	 -2.22108 	 -12.3978 	 
H 	 -46.3688 	 -3.29874 	 -12.2294 	 
H 	 -46.2284 	 -1.7236 	 -11.4147 	 
C 	 -46.9039 	 -1.53037 	 -13.5454 	 
H 	 -46.7777 	 -0.442512 	 -13.7285 	 
H 	 -46.7049 	 -1.9371 	 -14.5402 	 
H 	 -47.9942 	 -1.71643 	 -13.3444 	 
S 	 -39.6147 	 -4.67649 	 -14.7809 	 
C 	 -38.4276 	 -4.2254 	 -16.0211 	 
C 	 -39.1477 	 -3.81628 	 -17.1343 	 
C 	 -40.5547 	 -3.72174 	 -16.9844 	 
C 	 -40.992 	 -4.18867 	 -15.7485 	 
H 	 -38.5841 	 -3.52302 	 -17.9747 	 
C 	 -41.4078 	 -3.26399 	 -18.0823 	 
H 	 -42.1684 	 -2.66316 	 -17.6039 	 
H 	 -42.0101 	 -4.1002 	 -18.4869 	 
C 	 -40.7618 	 -2.43206 	 -19.2066 	 
H 	 -39.9271 	 -1.72932 	 -18.9136 	 
H 	 -41.4688 	 -1.77953 	 -19.7036 	 
C 	 -40.1252 	 -3.31958 	 -20.219 	 
H 	 -39.889 	 -4.34194 	 -19.8918 	 
H 	 -39.3271 	 -2.904 	 -20.8507 	 
H 	 -40.9646 	 -3.55409 	 -20.9261 	 
H 	 -45.7822 	 -4.16979 	 -14.339 	 
H 	 -37.3572 	 -4.29686 	 -16.0024 	 
