34

S 	 -121.805 	 62.3005 	 -54.3124 	 
C 	 -120.546 	 63.2375 	 -54.986 	 
C 	 -119.924 	 63.9497 	 -53.9453 	 
C 	 -120.538 	 63.8032 	 -52.6776 	 
C 	 -121.583 	 62.9413 	 -52.7179 	 
H 	 -120.393 	 64.5265 	 -51.8535 	 
C 	 -118.708 	 64.8737 	 -54.1476 	 
H 	 -117.845 	 64.2953 	 -54.605 	 
H 	 -118.307 	 65.1312 	 -53.194 	 
C 	 -119.006 	 66.1396 	 -54.8925 	 
H 	 -118.024 	 66.5871 	 -55.1665 	 
H 	 -119.42 	 65.8136 	 -55.839 	 
C 	 -119.798 	 67.1883 	 -54.0757 	 
H 	 -119.327 	 68.1916 	 -54.328 	 
H 	 -120.863 	 67.2402 	 -54.3175 	 
H 	 -119.757 	 67.0996 	 -53.0266 	 
S 	 -124.301 	 63.5024 	 -52.323 	 
C 	 -124.818 	 63.5555 	 -50.6622 	 
C 	 -123.866 	 63.0828 	 -49.7759 	 
C 	 -122.608 	 62.8192 	 -50.3407 	 
C 	 -122.654 	 62.9083 	 -51.7305 	 
H 	 -124.089 	 63.0171 	 -48.706 	 
C 	 -121.44 	 62.3246 	 -49.514 	 
H 	 -121.662 	 62.2466 	 -48.4141 	 
H 	 -120.63 	 63.0939 	 -49.5451 	 
C 	 -121.036 	 60.9065 	 -49.9414 	 
H 	 -120.009 	 60.8185 	 -49.54 	 
H 	 -120.928 	 60.7909 	 -51.0032 	 
C 	 -122.18 	 59.9401 	 -49.7353 	 
H 	 -123.126 	 60.2459 	 -50.151 	 
H 	 -122.347 	 59.6782 	 -48.696 	 
H 	 -121.845 	 59.0566 	 -50.2736 	 
H 	 -120.306 	 63.1317 	 -56.0544 	 
H 	 -125.738 	 64.0088 	 -50.2621 	 
