34

S 	 -56.3971 	 -59.4836 	 -80.8753 	 
C 	 -55.9541 	 -57.9446 	 -80.1578 	 
C 	 -56.3697 	 -56.8843 	 -80.9068 	 
C 	 -57.0444 	 -57.3573 	 -82.1101 	 
C 	 -57.2537 	 -58.7335 	 -82.2137 	 
H 	 -57.5195 	 -56.7184 	 -82.7754 	 
C 	 -56.1902 	 -55.4913 	 -80.5484 	 
H 	 -55.3619 	 -55.0739 	 -81.1574 	 
H 	 -55.6804 	 -55.3459 	 -79.6078 	 
C 	 -57.5832 	 -54.7767 	 -80.5759 	 
H 	 -58.1304 	 -54.9768 	 -81.4974 	 
H 	 -58.159 	 -55.3368 	 -79.8541 	 
C 	 -57.3884 	 -53.3216 	 -80.1852 	 
H 	 -56.917 	 -53.022 	 -79.2657 	 
H 	 -56.9831 	 -52.6507 	 -80.975 	 
H 	 -58.3431 	 -52.9712 	 -79.8754 	 
S 	 -59.0837 	 -60.721 	 -82.613 	 
C 	 -59.6303 	 -61.0966 	 -84.2401 	 
C 	 -59.2379 	 -60.1063 	 -85.1064 	 
C 	 -58.2681 	 -59.245 	 -84.5746 	 
C 	 -57.9943 	 -59.4918 	 -83.2378 	 
H 	 -59.7267 	 -59.9592 	 -86.1108 	 
C 	 -57.7314 	 -58.1594 	 -85.3469 	 
H 	 -57.4261 	 -57.3492 	 -84.6714 	 
H 	 -58.5699 	 -57.6932 	 -85.8871 	 
C 	 -56.7194 	 -58.4357 	 -86.462 	 
H 	 -56.7788 	 -57.5095 	 -86.9733 	 
H 	 -57.2174 	 -59.1889 	 -87.2053 	 
C 	 -55.2792 	 -58.7705 	 -86.0776 	 
H 	 -55.1826 	 -59.529 	 -85.3149 	 
H 	 -54.8993 	 -57.8218 	 -85.6178 	 
H 	 -54.6624 	 -59.0889 	 -86.9541 	 
H 	 -55.5599 	 -57.842 	 -79.1466 	 
H 	 -60.5134 	 -61.6917 	 -84.4599 	 
