34

S 	 -65.7052 	 9.65946 	 -18.3704 	 
C 	 -66.6789 	 9.58299 	 -16.8574 	 
C 	 -65.9897 	 8.98456 	 -15.8331 	 
C 	 -64.7201 	 8.52141 	 -16.3382 	 
C 	 -64.4219 	 8.67282 	 -17.6766 	 
H 	 -64.0698 	 8.11582 	 -15.6024 	 
C 	 -66.4617 	 8.93257 	 -14.3953 	 
H 	 -66.1002 	 8.0509 	 -13.992 	 
H 	 -67.524 	 8.97738 	 -14.4658 	 
C 	 -66.0591 	 10.1536 	 -13.5506 	 
H 	 -64.9307 	 10.3528 	 -13.6985 	 
H 	 -66.5438 	 11.0331 	 -13.9907 	 
C 	 -66.3568 	 10.2142 	 -12.0668 	 
H 	 -65.7848 	 10.9756 	 -11.6126 	 
H 	 -67.3784 	 10.577 	 -11.9925 	 
H 	 -66.1883 	 9.36378 	 -11.4574 	 
S 	 -63.3294 	 8.26167 	 -20.1873 	 
C 	 -61.7603 	 7.70753 	 -20.3192 	 
C 	 -61.1255 	 7.53442 	 -19.1237 	 
C 	 -61.9117 	 7.92763 	 -17.9822 	 
C 	 -63.198 	 8.27363 	 -18.3904 	 
H 	 -60.1608 	 7.03993 	 -19.1965 	 
C 	 -61.331 	 7.83751 	 -16.621 	 
H 	 -62.0102 	 8.41358 	 -15.9142 	 
H 	 -60.3942 	 8.35785 	 -16.6502 	 
C 	 -61.0598 	 6.4526 	 -16.0452 	 
H 	 -60.3715 	 6.58488 	 -15.1603 	 
H 	 -60.6224 	 5.9858 	 -16.9136 	 
C 	 -62.3482 	 5.67281 	 -15.5847 	 
H 	 -62.9943 	 5.84675 	 -16.4026 	 
H 	 -62.9237 	 6.13634 	 -14.7879 	 
H 	 -62.2344 	 4.56905 	 -15.4268 	 
H 	 -67.681 	 9.92018 	 -16.8703 	 
H 	 -61.2764 	 7.68501 	 -21.3005 	 
