34

S 	 -57.5979 	 4.80671 	 -34.2443 	 
C 	 -57.8119 	 3.13125 	 -33.7843 	 
C 	 -56.5741 	 2.57165 	 -33.7422 	 
C 	 -55.4936 	 3.38957 	 -33.9396 	 
C 	 -55.8455 	 4.69986 	 -34.1582 	 
H 	 -54.4633 	 3.09804 	 -34.0527 	 
C 	 -56.3084 	 1.14058 	 -33.3387 	 
H 	 -55.9051 	 0.539778 	 -34.1375 	 
H 	 -57.1433 	 0.587605 	 -33.2123 	 
C 	 -55.3877 	 0.977059 	 -32.1194 	 
H 	 -54.4097 	 1.25016 	 -32.3015 	 
H 	 -55.7212 	 1.70602 	 -31.3309 	 
C 	 -55.4799 	 -0.456039 	 -31.5148 	 
H 	 -54.7775 	 -0.574505 	 -30.6608 	 
H 	 -56.4185 	 -0.697891 	 -31.0974 	 
H 	 -55.3521 	 -1.29921 	 -32.1618 	 
S 	 -55.0752 	 6.41697 	 -36.1015 	 
C 	 -53.7773 	 7.60262 	 -35.7991 	 
C 	 -53.2433 	 7.50975 	 -34.5354 	 
C 	 -53.9066 	 6.43466 	 -33.8532 	 
C 	 -54.9808 	 5.83523 	 -34.5084 	 
H 	 -52.497 	 8.1786 	 -34.2535 	 
C 	 -53.5143 	 6.09758 	 -32.4143 	 
H 	 -53.0726 	 5.08068 	 -32.4057 	 
H 	 -54.3807 	 5.92057 	 -31.7865 	 
C 	 -52.6463 	 7.0027 	 -31.5382 	 
H 	 -53.1831 	 7.99031 	 -31.4284 	 
H 	 -51.7474 	 7.31353 	 -32.0411 	 
C 	 -52.4566 	 6.41585 	 -30.1348 	 
H 	 -51.5764 	 6.89219 	 -29.6774 	 
H 	 -52.2252 	 5.35769 	 -30.3269 	 
H 	 -53.3588 	 6.47698 	 -29.488 	 
H 	 -58.8099 	 2.58791 	 -33.6542 	 
H 	 -53.4428 	 8.29012 	 -36.4801 	 
