34

S 	 -94.9071 	 50.2786 	 -100.521 	 
C 	 -95.2145 	 49.573 	 -98.8806 	 
C 	 -95.1425 	 50.5463 	 -97.9026 	 
C 	 -95.062 	 51.8396 	 -98.4558 	 
C 	 -94.8408 	 51.8742 	 -99.8119 	 
H 	 -94.9515 	 52.786 	 -97.9206 	 
C 	 -95.223 	 50.4008 	 -96.3731 	 
H 	 -95.7491 	 49.4701 	 -96.1655 	 
H 	 -95.9212 	 51.0678 	 -95.8725 	 
C 	 -93.8963 	 50.4795 	 -95.6026 	 
H 	 -93.0768 	 49.8951 	 -96.0636 	 
H 	 -93.5987 	 51.4874 	 -95.6008 	 
C 	 -93.8899 	 50.0291 	 -94.1197 	 
H 	 -92.9314 	 50.1798 	 -93.7224 	 
H 	 -94.6505 	 50.5475 	 -93.537 	 
H 	 -94.0016 	 48.91 	 -94.1822 	 
S 	 -93.421 	 53.0101 	 -101.922 	 
C 	 -93.5541 	 54.7119 	 -102.297 	 
C 	 -94.559 	 55.3028 	 -101.516 	 
C 	 -95.1565 	 54.3947 	 -100.51 	 
C 	 -94.6462 	 53.0829 	 -100.66 	 
H 	 -94.8954 	 56.3134 	 -101.765 	 
C 	 -96.1497 	 54.8491 	 -99.4777 	 
H 	 -96.4983 	 54.0029 	 -98.9497 	 
H 	 -96.9925 	 55.2439 	 -100.027 	 
C 	 -95.6397 	 56.0161 	 -98.577 	 
H 	 -95.5225 	 57.0124 	 -99.1045 	 
H 	 -94.5349 	 55.8943 	 -98.2193 	 
C 	 -96.6699 	 56.2904 	 -97.3915 	 
H 	 -96.0585 	 56.5553 	 -96.5134 	 
H 	 -97.1868 	 55.3913 	 -97.0429 	 
H 	 -97.3646 	 57.0889 	 -97.5937 	 
H 	 -95.4713 	 48.5354 	 -98.6956 	 
H 	 -93.1037 	 55.0947 	 -103.167 	 
