34

S 	 -47.2953 	 13.6652 	 21.8935 	 
C 	 -47.0038 	 15.4102 	 21.8319 	 
C 	 -46.2043 	 15.854 	 22.9216 	 
C 	 -46.0646 	 14.7637 	 23.8551 	 
C 	 -46.8587 	 13.6794 	 23.5567 	 
H 	 -45.4094 	 14.7403 	 24.7226 	 
C 	 -45.5859 	 17.2164 	 23.0465 	 
H 	 -45.6191 	 17.4517 	 24.109 	 
H 	 -46.2317 	 17.9003 	 22.5815 	 
C 	 -44.0846 	 17.428 	 22.5373 	 
H 	 -43.9697 	 17.3527 	 21.4763 	 
H 	 -43.7121 	 18.4853 	 22.7539 	 
C 	 -43.1151 	 16.3936 	 23.2279 	 
H 	 -42.121 	 16.6571 	 23.0884 	 
H 	 -43.3837 	 16.301 	 24.2743 	 
H 	 -43.1441 	 15.5116 	 22.7492 	 
S 	 -46.3211 	 11.0302 	 23.716 	 
C 	 -46.4921 	 10.2314 	 25.2749 	 
C 	 -46.9628 	 11.1077 	 26.2229 	 
C 	 -47.0972 	 12.4356 	 25.8092 	 
C 	 -46.926 	 12.5895 	 24.4352 	 
H 	 -46.9995 	 10.7532 	 27.2492 	 
C 	 -47.4966 	 13.5231 	 26.8044 	 
H 	 -46.8636 	 14.4536 	 26.6997 	 
H 	 -47.218 	 13.1263 	 27.7995 	 
C 	 -49.0299 	 13.8449 	 26.7638 	 
H 	 -49.2606 	 14.3123 	 25.8424 	 
H 	 -49.2477 	 14.549 	 27.5587 	 
C 	 -49.953 	 12.6517 	 26.9961 	 
H 	 -49.6612 	 12.1626 	 27.9519 	 
H 	 -49.9399 	 11.8952 	 26.2216 	 
H 	 -50.8878 	 13.0579 	 27.1997 	 
H 	 -47.0329 	 15.9526 	 20.9213 	 
H 	 -46.1099 	 9.30346 	 25.4964 	 
