34

S 	 24.4465 	 -23.1005 	 -122.803 	 
C 	 24.475 	 -24.3707 	 -124.065 	 
C 	 24.262 	 -25.7112 	 -123.649 	 
C 	 24.2929 	 -25.7239 	 -122.213 	 
C 	 24.3601 	 -24.4559 	 -121.639 	 
H 	 24.2917 	 -26.6006 	 -121.569 	 
C 	 23.9293 	 -26.95 	 -124.438 	 
H 	 23.6865 	 -26.6269 	 -125.403 	 
H 	 23.0213 	 -27.303 	 -124.129 	 
C 	 25.0001 	 -28.012 	 -124.508 	 
H 	 25.9315 	 -27.7383 	 -124.982 	 
H 	 25.1888 	 -28.2655 	 -123.46 	 
C 	 24.6353 	 -29.2742 	 -125.322 	 
H 	 24.2951 	 -28.9836 	 -126.294 	 
H 	 25.4602 	 -30.0077 	 -125.443 	 
H 	 23.7864 	 -29.7573 	 -124.917 	 
S 	 25.6925 	 -23.0706 	 -119.696 	 
C 	 25.3691 	 -23.3163 	 -117.995 	 
C 	 24.4204 	 -24.2634 	 -117.839 	 
C 	 23.889 	 -24.7285 	 -119.103 	 
C 	 24.447 	 -24.1584 	 -120.214 	 
H 	 24.0954 	 -24.5766 	 -116.903 	 
C 	 22.7615 	 -25.7517 	 -119.18 	 
H 	 23.2052 	 -26.7674 	 -119.105 	 
H 	 22.2935 	 -25.5598 	 -120.215 	 
C 	 21.6696 	 -25.551 	 -118.146 	 
H 	 21.9963 	 -25.5833 	 -117.093 	 
H 	 21.1098 	 -26.454 	 -118.231 	 
C 	 20.6967 	 -24.3779 	 -118.304 	 
H 	 19.8908 	 -24.4171 	 -117.563 	 
H 	 20.0893 	 -24.5612 	 -119.186 	 
H 	 21.2405 	 -23.4424 	 -118.415 	 
H 	 24.3818 	 -24.1281 	 -125.073 	 
H 	 25.8852 	 -22.7865 	 -117.157 	 
