34

S 	 -34.7768 	 -7.76687 	 17.0896 	 
C 	 -33.3645 	 -8.64084 	 17.7533 	 
C 	 -33.0465 	 -9.73709 	 16.9792 	 
C 	 -33.952 	 -9.92572 	 15.8912 	 
C 	 -34.8926 	 -8.93954 	 15.8141 	 
H 	 -34.0208 	 -10.7923 	 15.1887 	 
C 	 -31.8466 	 -10.5663 	 17.2959 	 
H 	 -32.078 	 -11.5885 	 17.385 	 
H 	 -31.5939 	 -10.2616 	 18.2162 	 
C 	 -30.6094 	 -10.2857 	 16.394 	 
H 	 -29.9419 	 -11.0643 	 16.5434 	 
H 	 -30.9277 	 -10.4139 	 15.3617 	 
C 	 -30.1112 	 -8.82308 	 16.4808 	 
H 	 -29.2967 	 -8.76148 	 15.8211 	 
H 	 -30.8354 	 -8.13988 	 16.1809 	 
H 	 -29.7029 	 -8.51265 	 17.4289 	 
S 	 -36.7304 	 -10.5476 	 14.6494 	 
C 	 -37.6813 	 -9.80579 	 13.3487 	 
C 	 -37.5008 	 -8.44013 	 13.1324 	 
C 	 -36.5972 	 -7.916 	 14.1284 	 
C 	 -35.9643 	 -8.9351 	 14.801 	 
H 	 -38.0798 	 -7.87799 	 12.3968 	 
C 	 -36.2561 	 -6.47039 	 14.2268 	 
H 	 -35.8985 	 -6.22137 	 15.2635 	 
H 	 -37.1952 	 -5.92901 	 14.0136 	 
C 	 -35.2051 	 -5.96736 	 13.2382 	 
H 	 -35.2744 	 -4.89461 	 13.1969 	 
H 	 -35.4254 	 -6.43996 	 12.2522 	 
C 	 -33.8089 	 -6.3248 	 13.6968 	 
H 	 -33.6209 	 -7.40476 	 13.61 	 
H 	 -33.6255 	 -5.99682 	 14.7471 	 
H 	 -33.0982 	 -5.84751 	 13.0779 	 
H 	 -32.644 	 -8.35057 	 18.5352 	 
H 	 -38.2756 	 -10.4424 	 12.753 	 
