34

S 	 -34.8268 	 -5.24001 	 -5.24229 	 
C 	 -33.2903 	 -5.57068 	 -4.5481 	 
C 	 -32.4075 	 -4.59717 	 -5.06063 	 
C 	 -33.0184 	 -3.64099 	 -5.9538 	 
C 	 -34.3349 	 -3.98178 	 -6.28442 	 
H 	 -32.5223 	 -2.75562 	 -6.35733 	 
C 	 -30.9643 	 -4.51129 	 -4.59585 	 
H 	 -30.4116 	 -5.40577 	 -4.97604 	 
H 	 -31.0162 	 -4.67596 	 -3.57224 	 
C 	 -30.093 	 -3.25953 	 -4.87038 	 
H 	 -29.8838 	 -3.20849 	 -5.96016 	 
H 	 -30.6939 	 -2.33004 	 -4.58757 	 
C 	 -28.8204 	 -3.23354 	 -3.9926 	 
H 	 -27.9999 	 -2.46841 	 -4.29894 	 
H 	 -29.0913 	 -3.09292 	 -2.92114 	 
H 	 -28.3676 	 -4.20047 	 -3.87094 	 
S 	 -36.4241 	 -2.25335 	 -6.27085 	 
C 	 -37.079 	 -1.75744 	 -7.79212 	 
C 	 -36.2616 	 -2.08163 	 -8.8535 	 
C 	 -35.197 	 -2.92083 	 -8.50331 	 
C 	 -35.1734 	 -3.21807 	 -7.14415 	 
H 	 -36.5233 	 -1.84408 	 -9.90566 	 
C 	 -34.3665 	 -3.70358 	 -9.60832 	 
H 	 -35.1256 	 -4.04398 	 -10.3099 	 
H 	 -33.8252 	 -4.59596 	 -9.24737 	 
C 	 -33.4016 	 -2.82565 	 -10.4289 	 
H 	 -32.5267 	 -2.68474 	 -9.77208 	 
H 	 -33.8286 	 -1.83925 	 -10.6615 	 
C 	 -32.837 	 -3.467 	 -11.7552 	 
H 	 -32.1619 	 -2.8094 	 -12.2658 	 
H 	 -33.6422 	 -3.7587 	 -12.3836 	 
H 	 -32.1835 	 -4.3427 	 -11.618 	 
H 	 -33.0789 	 -6.30415 	 -3.79688 	 
H 	 -38.0213 	 -1.25578 	 -7.93146 	 
