34

S 	 -101.539 	 59.8958 	 -97.3907 	 
C 	 -102.921 	 59.1431 	 -98.1588 	 
C 	 -102.514 	 58.5275 	 -99.3485 	 
C 	 -101.133 	 58.7404 	 -99.5936 	 
C 	 -100.409 	 59.518 	 -98.7029 	 
H 	 -100.603 	 58.2714 	 -100.412 	 
C 	 -103.4 	 57.6073 	 -100.172 	 
H 	 -103.337 	 56.5747 	 -99.8854 	 
H 	 -102.864 	 57.5495 	 -101.087 	 
C 	 -104.799 	 58.1107 	 -100.571 	 
H 	 -105.4 	 58.185 	 -99.6683 	 
H 	 -104.773 	 59.1747 	 -100.835 	 
C 	 -105.506 	 57.2911 	 -101.649 	 
H 	 -104.864 	 57.3812 	 -102.541 	 
H 	 -105.8 	 56.2672 	 -101.391 	 
H 	 -106.408 	 57.8548 	 -101.77 	 
S 	 -98.3561 	 60.804 	 -100.018 	 
C 	 -96.7485 	 60.6839 	 -99.3703 	 
C 	 -96.7036 	 60.1476 	 -98.1073 	 
C 	 -98.0244 	 59.7879 	 -97.6447 	 
C 	 -98.9897 	 59.8467 	 -98.6789 	 
H 	 -95.7215 	 60.0737 	 -97.6158 	 
C 	 -98.1992 	 59.1907 	 -96.2153 	 
H 	 -99.1497 	 58.8671 	 -96.2109 	 
H 	 -98.1504 	 59.9878 	 -95.4303 	 
C 	 -97.2629 	 58.0516 	 -95.8575 	 
H 	 -97.5657 	 57.7481 	 -94.927 	 
H 	 -96.2178 	 58.3676 	 -95.6916 	 
C 	 -97.3892 	 56.9592 	 -96.8995 	 
H 	 -97.0348 	 56.0907 	 -96.4118 	 
H 	 -96.783 	 57.1017 	 -97.8462 	 
H 	 -98.3832 	 56.6244 	 -97.0668 	 
H 	 -103.885 	 58.9434 	 -97.6675 	 
H 	 -95.8461 	 60.9762 	 -99.8273 	 
