34

S 	 -92.4851 	 -36.4922 	 -57.4918 	 
C 	 -92.5702 	 -37.7352 	 -56.2223 	 
C 	 -93.9007 	 -38.0947 	 -55.9787 	 
C 	 -94.7949 	 -37.3083 	 -56.7415 	 
C 	 -94.2272 	 -36.3143 	 -57.5063 	 
H 	 -95.8794 	 -37.352 	 -56.74 	 
C 	 -94.4948 	 -39.232 	 -55.0942 	 
H 	 -95.4701 	 -38.854 	 -54.6741 	 
H 	 -93.8162 	 -39.2179 	 -54.2842 	 
C 	 -94.6332 	 -40.6674 	 -55.6242 	 
H 	 -95.3684 	 -40.6813 	 -56.3429 	 
H 	 -93.7192 	 -40.8584 	 -56.1403 	 
C 	 -95.0072 	 -41.7728 	 -54.6513 	 
H 	 -94.6896 	 -42.7407 	 -55.0698 	 
H 	 -94.4937 	 -41.6001 	 -53.7621 	 
H 	 -96.0396 	 -41.7131 	 -54.3249 	 
S 	 -94.3461 	 -33.5692 	 -57.9695 	 
C 	 -95.5553 	 -32.9772 	 -58.9936 	 
C 	 -96.3958 	 -33.9375 	 -59.4163 	 
C 	 -96.1078 	 -35.2668 	 -58.9412 	 
C 	 -94.8912 	 -35.2534 	 -58.2637 	 
H 	 -97.3179 	 -33.7975 	 -59.9673 	 
C 	 -97.1517 	 -36.4312 	 -59.198 	 
H 	 -96.7071 	 -37.3346 	 -58.6575 	 
H 	 -97.2063 	 -36.6356 	 -60.2978 	 
C 	 -98.5107 	 -36.0772 	 -58.746 	 
H 	 -99.1158 	 -36.9351 	 -59.1462 	 
H 	 -98.9234 	 -35.2252 	 -59.3097 	 
C 	 -98.6098 	 -36.031 	 -57.2362 	 
H 	 -98.0233 	 -36.7392 	 -56.7007 	 
H 	 -99.7137 	 -36.1154 	 -57.1528 	 
H 	 -98.1568 	 -35.1036 	 -57.0499 	 
H 	 -91.6635 	 -38.1058 	 -55.7705 	 
H 	 -95.6902 	 -31.9388 	 -59.3022 	 
