34

S 	 -132.755 	 12.8062 	 -6.84543 	 
C 	 -130.995 	 12.9165 	 -6.80901 	 
C 	 -130.425 	 11.703 	 -7.23402 	 
C 	 -131.443 	 10.8341 	 -7.81444 	 
C 	 -132.745 	 11.2615 	 -7.68675 	 
H 	 -131.318 	 9.89467 	 -8.35634 	 
C 	 -128.957 	 11.4177 	 -7.19309 	 
H 	 -128.314 	 12.0622 	 -7.84053 	 
H 	 -128.833 	 10.3855 	 -7.49399 	 
C 	 -128.3 	 11.3467 	 -5.78206 	 
H 	 -127.234 	 11.373 	 -6.06535 	 
H 	 -128.369 	 12.3171 	 -5.32909 	 
C 	 -128.738 	 10.1908 	 -4.81667 	 
H 	 -128.447 	 9.20853 	 -5.12654 	 
H 	 -128.095 	 10.1816 	 -3.91723 	 
H 	 -129.752 	 10.2662 	 -4.44456 	 
S 	 -134.857 	 11.8088 	 -9.17529 	 
C 	 -136.062 	 10.6033 	 -9.51849 	 
C 	 -135.656 	 9.32646 	 -9.11245 	 
C 	 -134.421 	 9.35917 	 -8.36173 	 
C 	 -133.952 	 10.6673 	 -8.26167 	 
H 	 -136.251 	 8.49628 	 -9.37254 	 
C 	 -133.713 	 8.10817 	 -7.91468 	 
H 	 -133.225 	 8.19195 	 -6.91603 	 
H 	 -132.926 	 8.01253 	 -8.61125 	 
C 	 -134.548 	 6.83361 	 -8.01727 	 
H 	 -135.084 	 6.66337 	 -8.91361 	 
H 	 -135.277 	 6.85871 	 -7.23898 	 
C 	 -133.575 	 5.59559 	 -7.73754 	 
H 	 -132.685 	 5.73444 	 -8.32238 	 
H 	 -133.967 	 4.61409 	 -8.02807 	 
H 	 -133.269 	 5.63336 	 -6.65223 	 
H 	 -130.248 	 13.5283 	 -6.2921 	 
H 	 -137.029 	 10.7295 	 -10.042 	 
