34

S 	 -52.5378 	 14.1108 	 25.6797 	 
C 	 -53.8147 	 12.8537 	 25.6511 	 
C 	 -54.6793 	 13.0996 	 26.6709 	 
C 	 -54.0766 	 13.8958 	 27.668 	 
C 	 -52.7746 	 14.2851 	 27.4098 	 
H 	 -54.39 	 14.2758 	 28.6811 	 
C 	 -56.0092 	 12.3471 	 26.9002 	 
H 	 -55.6632 	 11.4671 	 27.3477 	 
H 	 -56.3672 	 12.0804 	 25.9159 	 
C 	 -57.1313 	 13.1797 	 27.5557 	 
H 	 -56.9153 	 13.4647 	 28.6241 	 
H 	 -57.1715 	 14.1667 	 27.0151 	 
C 	 -58.5464 	 12.6027 	 27.5382 	 
H 	 -59.2244 	 13.2591 	 28.0924 	 
H 	 -58.8121 	 12.4946 	 26.4924 	 
H 	 -58.7291 	 11.6847 	 28.0193 	 
S 	 -51.3403 	 13.9861 	 29.7212 	 
C 	 -50.2039 	 15.2154 	 30.1578 	 
C 	 -50.1429 	 16.2797 	 29.3378 	 
C 	 -51.0713 	 16.0247 	 28.2309 	 
C 	 -51.8016 	 14.8632 	 28.3187 	 
H 	 -49.4387 	 17.1188 	 29.4868 	 
C 	 -51.2327 	 17.0687 	 27.1943 	 
H 	 -51.1791 	 16.546 	 26.21 	 
H 	 -50.3159 	 17.6537 	 27.1131 	 
C 	 -52.5157 	 17.872 	 27.3191 	 
H 	 -53.3106 	 17.21 	 27.4098 	 
H 	 -52.7259 	 18.3167 	 26.2963 	 
C 	 -52.5675 	 18.9333 	 28.4202 	 
H 	 -53.5048 	 19.4374 	 28.4584 	 
H 	 -51.8353 	 19.7305 	 28.3519 	 
H 	 -52.4176 	 18.5249 	 29.4307 	 
H 	 -54.0529 	 12.2762 	 24.7633 	 
H 	 -49.4111 	 15.0421 	 30.9469 	 
