34

S 	 -99.3491 	 24.3126 	 -111.704 	 
C 	 -100.143 	 22.8236 	 -111.374 	 
C 	 -101.421 	 23.018 	 -110.809 	 
C 	 -101.806 	 24.406 	 -110.728 	 
C 	 -100.839 	 25.2575 	 -111.288 	 
H 	 -102.72 	 24.8483 	 -110.284 	 
C 	 -102.375 	 21.8419 	 -110.592 	 
H 	 -102.746 	 21.8789 	 -109.533 	 
H 	 -101.747 	 20.952 	 -110.659 	 
C 	 -103.542 	 21.6256 	 -111.593 	 
H 	 -104.101 	 20.7248 	 -111.319 	 
H 	 -104.265 	 22.4238 	 -111.576 	 
C 	 -103.058 	 21.7025 	 -113.06 	 
H 	 -103.885 	 21.4387 	 -113.758 	 
H 	 -102.69 	 22.7381 	 -113.343 	 
H 	 -102.2 	 21.012 	 -113.224 	 
S 	 -99.4403 	 27.6112 	 -110.999 	 
C 	 -99.8504 	 29.0008 	 -111.919 	 
C 	 -101.059 	 28.7923 	 -112.555 	 
C 	 -101.652 	 27.522 	 -112.258 	 
C 	 -100.866 	 26.6899 	 -111.459 	 
H 	 -101.489 	 29.5337 	 -113.128 	 
C 	 -103.021 	 27.1681 	 -112.823 	 
H 	 -103.623 	 28.0741 	 -112.883 	 
H 	 -103.543 	 26.5282 	 -112.137 	 
C 	 -102.845 	 26.6148 	 -114.235 	 
H 	 -102.423 	 25.6702 	 -114.2 	 
H 	 -102.187 	 27.1209 	 -114.939 	 
C 	 -104.168 	 26.5395 	 -114.973 	 
H 	 -104.487 	 27.5155 	 -115.089 	 
H 	 -104.986 	 26.0087 	 -114.513 	 
H 	 -104.073 	 26.0776 	 -115.957 	 
H 	 -99.7164 	 21.8551 	 -111.374 	 
H 	 -99.3805 	 29.9282 	 -111.966 	 
