34

S 	 -49.5248 	 26.7914 	 26.0285 	 
C 	 -50.0489 	 27.197 	 27.5675 	 
C 	 -49.8274 	 26.088 	 28.411 	 
C 	 -48.9806 	 25.1342 	 27.8667 	 
C 	 -48.6655 	 25.3637 	 26.5545 	 
H 	 -48.5034 	 24.2456 	 28.2875 	 
C 	 -50.2199 	 26.0201 	 29.8689 	 
H 	 -51.2923 	 26.1908 	 29.9685 	 
H 	 -49.6494 	 26.6881 	 30.518 	 
C 	 -49.8741 	 24.6405 	 30.5277 	 
H 	 -50.3345 	 23.8604 	 29.9767 	 
H 	 -48.8581 	 24.5485 	 30.64 	 
C 	 -50.5066 	 24.6809 	 31.9093 	 
H 	 -51.5707 	 24.4193 	 31.949 	 
H 	 -49.9603 	 23.855 	 32.4216 	 
H 	 -50.3384 	 25.5876 	 32.4413 	 
S 	 -47.3648 	 25.3667 	 24.1107 	 
C 	 -46.5465 	 23.9186 	 23.5579 	 
C 	 -46.6757 	 22.882 	 24.4487 	 
C 	 -47.5506 	 23.1973 	 25.5379 	 
C 	 -47.9291 	 24.5661 	 25.5447 	 
H 	 -46.3032 	 21.8976 	 24.2651 	 
C 	 -48.0617 	 22.1203 	 26.5809 	 
H 	 -48.5936 	 21.2913 	 26.111 	 
H 	 -48.8238 	 22.6598 	 27.1704 	 
C 	 -47.0529 	 21.4671 	 27.6444 	 
H 	 -46.5225 	 22.19 	 28.1952 	 
H 	 -46.31 	 20.8902 	 27.0917 	 
C 	 -47.7745 	 20.5286 	 28.6739 	 
H 	 -47.0066 	 20.0113 	 29.1898 	 
H 	 -48.4713 	 19.8737 	 28.1852 	 
H 	 -48.3412 	 21.0343 	 29.4097 	 
H 	 -50.5888 	 28.0269 	 27.9437 	 
H 	 -45.9611 	 23.8995 	 22.6292 	 
