34

S 	 -127.456 	 57.8607 	 -54.3704 	 
C 	 -128.285 	 56.6023 	 -55.3997 	 
C 	 -129.035 	 57.3108 	 -56.3336 	 
C 	 -129.006 	 58.7479 	 -56.2481 	 
C 	 -128.072 	 59.1927 	 -55.3283 	 
H 	 -129.524 	 59.427 	 -56.9753 	 
C 	 -129.841 	 56.624 	 -57.4449 	 
H 	 -129.166 	 55.7443 	 -57.6084 	 
H 	 -129.904 	 57.3272 	 -58.3173 	 
C 	 -131.288 	 56.2858 	 -57.1006 	 
H 	 -131.302 	 55.7207 	 -56.1767 	 
H 	 -131.833 	 57.1675 	 -56.8465 	 
C 	 -131.995 	 55.5368 	 -58.1976 	 
H 	 -133.087 	 55.7453 	 -58.0846 	 
H 	 -131.925 	 56.0919 	 -59.1492 	 
H 	 -131.636 	 54.4963 	 -58.2802 	 
S 	 -126.528 	 61.4284 	 -56.0152 	 
C 	 -126.894 	 62.9345 	 -55.1965 	 
C 	 -127.747 	 62.6989 	 -54.1481 	 
C 	 -128.246 	 61.3588 	 -54.0586 	 
C 	 -127.759 	 60.5733 	 -55.0337 	 
H 	 -128.021 	 63.4565 	 -53.4346 	 
C 	 -129.313 	 60.9878 	 -53.0187 	 
H 	 -129.663 	 60.037 	 -53.2355 	 
H 	 -130.193 	 61.5798 	 -53.1708 	 
C 	 -128.689 	 61.0743 	 -51.5878 	 
H 	 -128.34 	 62.0647 	 -51.3886 	 
H 	 -127.83 	 60.3272 	 -51.6183 	 
C 	 -129.77 	 60.6148 	 -50.5033 	 
H 	 -129.438 	 60.8149 	 -49.5101 	 
H 	 -129.972 	 59.6022 	 -50.5897 	 
H 	 -130.629 	 61.1921 	 -50.6533 	 
H 	 -128.228 	 55.551 	 -55.3105 	 
H 	 -126.26 	 63.8313 	 -55.2115 	 
