34

S 	 36.1436 	 -30.3785 	 -113.12 	 
C 	 34.5317 	 -30.7793 	 -112.56 	 
C 	 34.2744 	 -32.1512 	 -112.695 	 
C 	 35.3036 	 -32.8288 	 -113.422 	 
C 	 36.4377 	 -32.0609 	 -113.702 	 
H 	 35.3338 	 -33.8411 	 -113.718 	 
C 	 33.0732 	 -32.939 	 -112.177 	 
H 	 32.4907 	 -33.2331 	 -113.119 	 
H 	 32.3948 	 -32.174 	 -111.645 	 
C 	 33.2984 	 -34.0882 	 -111.23 	 
H 	 34.2703 	 -34.4946 	 -111.524 	 
H 	 33.489 	 -33.783 	 -110.199 	 
C 	 32.2671 	 -35.2426 	 -111.345 	 
H 	 31.2757 	 -34.9609 	 -110.986 	 
H 	 32.2842 	 -35.3764 	 -112.418 	 
H 	 32.7158 	 -36.092 	 -110.844 	 
S 	 37.571 	 -33.6154 	 -115.724 	 
C 	 39.3168 	 -33.4942 	 -115.942 	 
C 	 39.8868 	 -32.6157 	 -115.102 	 
C 	 39.0677 	 -32.2028 	 -114.038 	 
C 	 37.7075 	 -32.485 	 -114.315 	 
H 	 40.968 	 -32.596 	 -115.128 	 
C 	 39.6479 	 -31.5271 	 -112.816 	 
H 	 39.1802 	 -30.5124 	 -112.995 	 
H 	 40.73 	 -31.3123 	 -112.805 	 
C 	 39.3077 	 -32.0193 	 -111.399 	 
H 	 39.263 	 -33.0823 	 -111.336 	 
H 	 38.2499 	 -31.7922 	 -111.235 	 
C 	 40.0475 	 -31.325 	 -110.261 	 
H 	 41.1333 	 -31.4635 	 -110.285 	 
H 	 39.6525 	 -31.6523 	 -109.307 	 
H 	 39.9343 	 -30.2582 	 -110.47 	 
H 	 33.8262 	 -30.1514 	 -112.125 	 
H 	 39.8746 	 -33.8403 	 -116.813 	 
