34

S 	 -43.8646 	 -2.82498 	 -22.0417 	 
C 	 -45.3249 	 -2.70646 	 -23.0201 	 
C 	 -45.1896 	 -3.42179 	 -24.2386 	 
C 	 -43.8911 	 -3.89724 	 -24.41 	 
C 	 -43.1035 	 -3.82162 	 -23.2833 	 
H 	 -43.4876 	 -4.44492 	 -25.2397 	 
C 	 -46.2156 	 -3.82704 	 -25.243 	 
H 	 -46.9898 	 -4.42599 	 -24.6845 	 
H 	 -45.7558 	 -4.38387 	 -26.0469 	 
C 	 -46.931 	 -2.74138 	 -26.044 	 
H 	 -47.4518 	 -3.14148 	 -26.9674 	 
H 	 -47.728 	 -2.32936 	 -25.4337 	 
C 	 -46.044 	 -1.48928 	 -26.2926 	 
H 	 -45.7411 	 -0.958893 	 -25.4405 	 
H 	 -45.1261 	 -1.93452 	 -26.7986 	 
H 	 -46.533 	 -0.819356 	 -27.0192 	 
S 	 -40.5008 	 -3.11024 	 -22.6427 	 
C 	 -39.348 	 -4.3968 	 -22.4367 	 
C 	 -39.8478 	 -5.613 	 -22.7957 	 
C 	 -41.1031 	 -5.54524 	 -23.3438 	 
C 	 -41.6976 	 -4.2746 	 -23.1912 	 
H 	 -39.2235 	 -6.46859 	 -22.7626 	 
C 	 -41.8442 	 -6.74024 	 -23.8768 	 
H 	 -41.5318 	 -6.86007 	 -24.9346 	 
H 	 -42.8951 	 -6.44748 	 -23.7316 	 
C 	 -41.6256 	 -8.14036 	 -23.1902 	 
H 	 -41.7242 	 -8.03385 	 -22.1273 	 
H 	 -40.6254 	 -8.51833 	 -23.206 	 
C 	 -42.5413 	 -9.21126 	 -23.7155 	 
H 	 -43.6323 	 -9.02443 	 -23.4153 	 
H 	 -42.3274 	 -10.253 	 -23.3852 	 
H 	 -42.4562 	 -9.19404 	 -24.7964 	 
H 	 -46.3409 	 -2.42688 	 -22.5306 	 
H 	 -38.3639 	 -4.22264 	 -22.1445 	 
