34

S 	 -78.1589 	 -3.76717 	 6.04671 	 
C 	 -77.5576 	 -2.60519 	 4.87713 	 
C 	 -77.8379 	 -3.01288 	 3.55828 	 
C 	 -78.1635 	 -4.37123 	 3.52285 	 
C 	 -78.2866 	 -4.9658 	 4.78086 	 
H 	 -78.3804 	 -4.96402 	 2.63291 	 
C 	 -77.6773 	 -2.20982 	 2.32431 	 
H 	 -77.8762 	 -1.20113 	 2.77185 	 
H 	 -78.4087 	 -2.58736 	 1.7139 	 
C 	 -76.327 	 -1.92271 	 1.52861 	 
H 	 -76.3072 	 -0.931354 	 1.04512 	 
H 	 -75.6111 	 -1.78303 	 2.31186 	 
C 	 -75.8892 	 -3.00161 	 0.551753 	 
H 	 -74.8897 	 -2.7967 	 0.163749 	 
H 	 -75.8801 	 -3.95828 	 0.973676 	 
H 	 -76.5963 	 -3.02472 	 -0.232479 	 
S 	 -80.3738 	 -6.65425 	 5.22871 	 
C 	 -80.1021 	 -8.39032 	 5.31797 	 
C 	 -78.7458 	 -8.59531 	 5.09086 	 
C 	 -77.9279 	 -7.49773 	 5.0632 	 
C 	 -78.6704 	 -6.30816 	 5.0334 	 
H 	 -78.4888 	 -9.61747 	 4.95642 	 
C 	 -76.4489 	 -7.68574 	 4.81409 	 
H 	 -76.0964 	 -8.62145 	 5.24277 	 
H 	 -75.8743 	 -6.78094 	 5.16609 	 
C 	 -76.1191 	 -7.87853 	 3.32166 	 
H 	 -76.6948 	 -7.07263 	 2.86013 	 
H 	 -76.5047 	 -8.84078 	 2.89514 	 
C 	 -74.6682 	 -7.66735 	 2.91958 	 
H 	 -74.4364 	 -6.66763 	 2.84718 	 
H 	 -74.4786 	 -8.12351 	 1.91562 	 
H 	 -74.0957 	 -8.18658 	 3.6284 	 
H 	 -77.2536 	 -1.65723 	 5.23481 	 
H 	 -80.7992 	 -9.10606 	 5.50959 	 
