34

S 	 -138.797 	 9.17686 	 4.46671 	 
C 	 -140.309 	 9.88215 	 3.75584 	 
C 	 -141.339 	 9.98928 	 4.65005 	 
C 	 -140.891 	 9.61015 	 5.97098 	 
C 	 -139.637 	 9.0695 	 6.02688 	 
H 	 -141.504 	 9.61708 	 6.85426 	 
C 	 -142.781 	 10.3074 	 4.32512 	 
H 	 -142.813 	 10.4005 	 3.27606 	 
H 	 -142.959 	 11.3025 	 4.65425 	 
C 	 -143.892 	 9.31334 	 4.84518 	 
H 	 -143.999 	 9.35348 	 5.91982 	 
H 	 -144.798 	 9.75832 	 4.45809 	 
C 	 -143.593 	 7.79279 	 4.70782 	 
H 	 -142.848 	 7.46732 	 5.44165 	 
H 	 -144.477 	 7.16508 	 4.89505 	 
H 	 -143.173 	 7.57019 	 3.7282 	 
S 	 -137.316 	 8.27884 	 7.21105 	 
C 	 -137.359 	 7.41655 	 8.77176 	 
C 	 -138.619 	 7.26992 	 9.21521 	 
C 	 -139.571 	 7.86607 	 8.33661 	 
C 	 -139.031 	 8.41629 	 7.16597 	 
H 	 -138.785 	 6.8382 	 10.2199 	 
C 	 -141.021 	 7.91755 	 8.80367 	 
H 	 -141.432 	 6.93958 	 8.99458 	 
H 	 -141.675 	 8.21344 	 7.9751 	 
C 	 -141.401 	 8.9561 	 9.93526 	 
H 	 -141.416 	 9.96337 	 9.5373 	 
H 	 -140.699 	 8.9838 	 10.7647 	 
C 	 -142.781 	 8.72257 	 10.4818 	 
H 	 -142.835 	 7.80921 	 11.0094 	 
H 	 -143.535 	 8.821 	 9.70308 	 
H 	 -142.99 	 9.42782 	 11.2525 	 
H 	 -140.467 	 10.2083 	 2.71707 	 
H 	 -136.526 	 6.99564 	 9.32127 	 
