34

S 	 -123.958 	 67.5281 	 -40.936 	 
C 	 -123.367 	 69.0917 	 -40.457 	 
C 	 -122.505 	 69.6378 	 -41.4083 	 
C 	 -122.35 	 68.7027 	 -42.5087 	 
C 	 -123.121 	 67.5635 	 -42.4935 	 
H 	 -121.691 	 68.8395 	 -43.4121 	 
C 	 -121.752 	 71.0008 	 -41.2979 	 
H 	 -120.861 	 70.8383 	 -41.9633 	 
H 	 -121.381 	 71.0729 	 -40.2393 	 
C 	 -122.527 	 72.2049 	 -41.7744 	 
H 	 -121.901 	 73.066 	 -41.794 	 
H 	 -122.83 	 72.034 	 -42.7917 	 
C 	 -123.845 	 72.4259 	 -40.9527 	 
H 	 -124.439 	 73.3313 	 -41.2501 	 
H 	 -124.608 	 71.6503 	 -41.0983 	 
H 	 -123.501 	 72.2778 	 -39.9744 	 
S 	 -122.501 	 64.9468 	 -42.8375 	 
C 	 -122.345 	 64.3164 	 -44.4117 	 
C 	 -122.757 	 65.2248 	 -45.3402 	 
C 	 -123.225 	 66.4664 	 -44.7977 	 
C 	 -123.015 	 66.4502 	 -43.4417 	 
H 	 -122.544 	 64.9528 	 -46.4113 	 
C 	 -123.837 	 67.5471 	 -45.6479 	 
H 	 -123.929 	 68.4511 	 -45.0404 	 
H 	 -124.926 	 67.2626 	 -45.8273 	 
C 	 -123.105 	 67.9537 	 -46.8803 	 
H 	 -123.736 	 68.5312 	 -47.5843 	 
H 	 -122.771 	 67.0564 	 -47.4636 	 
C 	 -121.831 	 68.7526 	 -46.7274 	 
H 	 -121.229 	 68.8417 	 -47.6386 	 
H 	 -121.136 	 68.3828 	 -45.9215 	 
H 	 -122.001 	 69.8361 	 -46.3713 	 
H 	 -123.608 	 69.5603 	 -39.5162 	 
H 	 -122.055 	 63.3603 	 -44.8472 	 
