34

S 	 -40.2892 	 -51.5197 	 -73.4549 	 
C 	 -40.9583 	 -50.1988 	 -74.3831 	 
C 	 -40.3623 	 -48.9709 	 -73.962 	 
C 	 -39.6697 	 -49.1263 	 -72.7354 	 
C 	 -39.5248 	 -50.4633 	 -72.2441 	 
H 	 -39.1978 	 -48.2987 	 -72.2722 	 
C 	 -40.3174 	 -47.7149 	 -74.7736 	 
H 	 -39.8998 	 -48.052 	 -75.7053 	 
H 	 -39.6262 	 -47.0503 	 -74.3159 	 
C 	 -41.5976 	 -47.0053 	 -75.1778 	 
H 	 -41.3156 	 -46.1668 	 -75.8756 	 
H 	 -42.1236 	 -47.8284 	 -75.624 	 
C 	 -42.3943 	 -46.4336 	 -73.9632 	 
H 	 -41.8752 	 -45.853 	 -73.2749 	 
H 	 -43.3247 	 -45.94 	 -74.3234 	 
H 	 -42.7412 	 -47.2238 	 -73.1446 	 
S 	 -36.9715 	 -50.8496 	 -71.2684 	 
C 	 -36.7803 	 -51.712 	 -69.7782 	 
C 	 -37.9671 	 -52.0266 	 -69.2102 	 
C 	 -39.1184 	 -51.5945 	 -69.9433 	 
C 	 -38.7365 	 -50.9062 	 -71.087 	 
H 	 -37.9829 	 -52.4412 	 -68.2036 	 
C 	 -40.5484 	 -51.6889 	 -69.3961 	 
H 	 -41.0581 	 -50.7364 	 -69.5602 	 
H 	 -40.562 	 -51.7751 	 -68.3381 	 
C 	 -41.4242 	 -52.7621 	 -69.9863 	 
H 	 -40.9235 	 -53.7572 	 -70.1116 	 
H 	 -41.5902 	 -52.48 	 -71.001 	 
C 	 -42.7086 	 -52.933 	 -69.1809 	 
H 	 -43.3594 	 -52.061 	 -69.2147 	 
H 	 -42.4343 	 -53.2431 	 -68.1493 	 
H 	 -43.3665 	 -53.7828 	 -69.4476 	 
H 	 -41.3842 	 -50.3073 	 -75.3411 	 
H 	 -35.9289 	 -51.7112 	 -69.1171 	 
