34

S 	 -22.0113 	 -35.8912 	 -92.4957 	 
C 	 -20.4492 	 -36.6535 	 -92.9765 	 
C 	 -19.6526 	 -35.6983 	 -93.5106 	 
C 	 -20.2196 	 -34.3997 	 -93.4844 	 
C 	 -21.4559 	 -34.3568 	 -92.9462 	 
H 	 -19.7862 	 -33.5043 	 -93.9204 	 
C 	 -18.3477 	 -35.9547 	 -94.2076 	 
H 	 -18.3338 	 -35.3579 	 -95.0659 	 
H 	 -18.3153 	 -36.9266 	 -94.5979 	 
C 	 -17.1521 	 -35.709 	 -93.3636 	 
H 	 -17.1956 	 -34.7022 	 -92.8407 	 
H 	 -17.1481 	 -36.4496 	 -92.6064 	 
C 	 -15.7812 	 -35.946 	 -94.0094 	 
H 	 -15.7308 	 -37.0167 	 -94.3249 	 
H 	 -15.52 	 -35.2897 	 -94.8798 	 
H 	 -14.9583 	 -35.9257 	 -93.3003 	 
S 	 -23.8086 	 -33.1303 	 -93.7797 	 
C 	 -24.0847 	 -31.4351 	 -93.3881 	 
C 	 -23.236 	 -31.1117 	 -92.3643 	 
C 	 -22.2105 	 -32.0103 	 -92.0111 	 
C 	 -22.3075 	 -33.1952 	 -92.8405 	 
H 	 -23.2863 	 -30.107 	 -92.0238 	 
C 	 -21.2385 	 -31.7716 	 -90.9361 	 
H 	 -20.7025 	 -32.7232 	 -90.7686 	 
H 	 -21.8535 	 -31.6032 	 -90.0106 	 
C 	 -20.2416 	 -30.601 	 -91.0886 	 
H 	 -19.725 	 -30.4077 	 -90.1402 	 
H 	 -20.7675 	 -29.6697 	 -91.2295 	 
C 	 -19.2195 	 -30.7989 	 -92.2146 	 
H 	 -18.8131 	 -31.7287 	 -91.9944 	 
H 	 -18.5065 	 -29.9996 	 -92.1313 	 
H 	 -19.7562 	 -30.9006 	 -93.2108 	 
H 	 -20.1947 	 -37.6897 	 -92.9627 	 
H 	 -24.8089 	 -30.8012 	 -93.8045 	 
