34

S 	 -128.22 	 62.0349 	 -58.8214 	 
C 	 -128.28 	 62.4344 	 -60.5538 	 
C 	 -129.49 	 61.8958 	 -61.0679 	 
C 	 -130.279 	 61.2489 	 -60.0437 	 
C 	 -129.721 	 61.1993 	 -58.8295 	 
H 	 -131.245 	 60.8078 	 -60.1025 	 
C 	 -129.957 	 62.142 	 -62.4924 	 
H 	 -130.922 	 62.5962 	 -62.3987 	 
H 	 -130.03 	 61.1069 	 -62.8313 	 
C 	 -128.948 	 62.9381 	 -63.3593 	 
H 	 -128.774 	 63.8765 	 -62.9764 	 
H 	 -128.039 	 62.3197 	 -63.421 	 
C 	 -129.542 	 63.0403 	 -64.7785 	 
H 	 -130.627 	 63.0487 	 -64.655 	 
H 	 -129.16 	 63.929 	 -65.3006 	 
H 	 -129.298 	 62.1633 	 -65.4067 	 
S 	 -129.222 	 59.7088 	 -56.5811 	 
C 	 -130.476 	 59.4178 	 -55.3561 	 
C 	 -131.604 	 60.018 	 -55.7326 	 
C 	 -131.464 	 60.7724 	 -56.9735 	 
C 	 -130.243 	 60.5927 	 -57.5864 	 
H 	 -132.466 	 59.9348 	 -55.0991 	 
C 	 -132.711 	 61.4863 	 -57.4789 	 
H 	 -132.438 	 62.1757 	 -58.2614 	 
H 	 -133.061 	 62.1709 	 -56.6946 	 
C 	 -133.845 	 60.5648 	 -57.9346 	 
H 	 -134.012 	 59.8314 	 -57.1782 	 
H 	 -133.53 	 60.0037 	 -58.8236 	 
C 	 -135.155 	 61.3913 	 -58.1406 	 
H 	 -135.226 	 61.5966 	 -59.241 	 
H 	 -135.363 	 62.2008 	 -57.458 	 
H 	 -135.91 	 60.7186 	 -57.8447 	 
H 	 -127.581 	 62.9832 	 -61.1375 	 
H 	 -130.331 	 59.061 	 -54.3494 	 
