34

S 	 31.8176 	 -25.0351 	 -126.578 	 
C 	 32.045 	 -26.1166 	 -128.028 	 
C 	 31.3754 	 -27.3241 	 -127.912 	 
C 	 30.6041 	 -27.3529 	 -126.722 	 
C 	 30.6308 	 -26.2482 	 -125.888 	 
H 	 29.9457 	 -28.2141 	 -126.437 	 
C 	 31.1647 	 -28.2874 	 -129.035 	 
H 	 31.4014 	 -29.311 	 -128.617 	 
H 	 31.9271 	 -28.1468 	 -129.782 	 
C 	 29.7986 	 -28.1383 	 -129.707 	 
H 	 29.1243 	 -28.0663 	 -128.875 	 
H 	 29.6306 	 -27.2611 	 -130.363 	 
C 	 29.4849 	 -29.3212 	 -130.597 	 
H 	 30.3878 	 -29.4687 	 -131.164 	 
H 	 29.2598 	 -30.2652 	 -130.082 	 
H 	 28.5938 	 -29.0686 	 -131.146 	 
S 	 29.8003 	 -26.8858 	 -123.389 	 
C 	 28.6563 	 -25.9329 	 -122.514 	 
C 	 28.2059 	 -24.8824 	 -123.299 	 
C 	 28.8547 	 -24.8864 	 -124.615 	 
C 	 29.8662 	 -25.8596 	 -124.73 	 
H 	 27.3952 	 -24.2185 	 -123.057 	 
C 	 28.609 	 -23.8392 	 -125.686 	 
H 	 27.5947 	 -24.0371 	 -125.997 	 
H 	 29.1908 	 -24.1128 	 -126.603 	 
C 	 28.773 	 -22.448 	 -125.42 	 
H 	 28.1118 	 -22.1231 	 -124.599 	 
H 	 28.3956 	 -21.8516 	 -126.251 	 
C 	 30.1845 	 -22.0194 	 -125.145 	 
H 	 30.7075 	 -22.5321 	 -124.314 	 
H 	 30.3007 	 -20.9585 	 -124.888 	 
H 	 30.8018 	 -22.3127 	 -126.003 	 
H 	 32.6171 	 -25.8617 	 -128.978 	 
H 	 28.1562 	 -26.0221 	 -121.459 	 
