34

S 	 -71.8811 	 18.0253 	 -77.7819 	 
C 	 -72.6123 	 19.3731 	 -76.8985 	 
C 	 -71.7206 	 20.4339 	 -76.7255 	 
C 	 -70.4123 	 20.043 	 -77.2428 	 
C 	 -70.3229 	 18.7797 	 -77.7972 	 
H 	 -69.5735 	 20.6926 	 -77.0946 	 
C 	 -72.1685 	 21.7488 	 -76.042 	 
H 	 -71.6436 	 21.8709 	 -75.1396 	 
H 	 -73.1169 	 21.5557 	 -75.6128 	 
C 	 -72.1652 	 22.9402 	 -76.9946 	 
H 	 -71.0769 	 23.0433 	 -77.2395 	 
H 	 -72.6682 	 22.7916 	 -77.9625 	 
C 	 -72.5561 	 24.1942 	 -76.2359 	 
H 	 -73.5991 	 24.217 	 -75.8483 	 
H 	 -71.9946 	 24.3628 	 -75.3294 	 
H 	 -72.4522 	 25.0854 	 -76.8547 	 
S 	 -69.3383 	 16.2381 	 -77.9218 	 
C 	 -67.8086 	 15.9061 	 -78.7659 	 
C 	 -67.1942 	 17.0482 	 -79.2171 	 
C 	 -68.0151 	 18.2237 	 -79.0338 	 
C 	 -69.1792 	 17.9809 	 -78.2966 	 
H 	 -66.1889 	 16.8915 	 -79.6027 	 
C 	 -67.6234 	 19.5863 	 -79.5869 	 
H 	 -68.3386 	 20.3636 	 -79.6043 	 
H 	 -67.4911 	 19.4289 	 -80.6154 	 
C 	 -66.3861 	 20.2903 	 -78.9104 	 
H 	 -66.1651 	 21.1884 	 -79.5549 	 
H 	 -65.5039 	 19.6662 	 -79.056 	 
C 	 -66.5608 	 20.7146 	 -77.4646 	 
H 	 -65.6085 	 21.2193 	 -77.1369 	 
H 	 -66.6632 	 19.8479 	 -76.8304 	 
H 	 -67.4227 	 21.3497 	 -77.3721 	 
H 	 -73.6775 	 19.4592 	 -76.625 	 
H 	 -67.4077 	 14.8409 	 -78.8083 	 
