34

S 	 -49.8484 	 18.6089 	 22.4758 	 
C 	 -50.4902 	 19.0078 	 24.1068 	 
C 	 -51.5987 	 18.261 	 24.3236 	 
C 	 -51.7784 	 17.2164 	 23.3834 	 
C 	 -50.7983 	 17.171 	 22.3957 	 
H 	 -52.654 	 16.5911 	 23.2674 	 
C 	 -52.6061 	 18.5487 	 25.3697 	 
H 	 -53.5705 	 18.2559 	 25.0423 	 
H 	 -52.7771 	 19.5911 	 25.4676 	 
C 	 -52.3914 	 17.9528 	 26.7304 	 
H 	 -52.2215 	 16.9229 	 26.5099 	 
H 	 -51.4601 	 18.2698 	 27.2565 	 
C 	 -53.6288 	 18.1098 	 27.5372 	 
H 	 -53.5209 	 17.8686 	 28.6226 	 
H 	 -53.992 	 19.1203 	 27.4713 	 
H 	 -54.388 	 17.3645 	 27.1794 	 
S 	 -49.7871 	 16.7326 	 19.9299 	 
C 	 -50.0328 	 15.2198 	 19.0715 	 
C 	 -51.038 	 14.4746 	 19.7234 	 
C 	 -51.33 	 15.0061 	 21.0135 	 
C 	 -50.7755 	 16.2269 	 21.2447 	 
H 	 -51.4413 	 13.5556 	 19.2881 	 
C 	 -52.1815 	 14.2707 	 22.0512 	 
H 	 -53.1121 	 14.7673 	 21.8586 	 
H 	 -51.9779 	 14.6326 	 23.0764 	 
C 	 -52.3755 	 12.6823 	 22.0212 	 
H 	 -52.8196 	 12.4291 	 21.076 	 
H 	 -53.0497 	 12.5226 	 22.8744 	 
C 	 -51.0752 	 11.8711 	 22.2502 	 
H 	 -51.3266 	 10.7969 	 22.3117 	 
H 	 -50.5856 	 12.14 	 23.1627 	 
H 	 -50.3319 	 11.8569 	 21.4787 	 
H 	 -50.3395 	 19.9867 	 24.6405 	 
H 	 -49.6099 	 15.1829 	 18.0524 	 
