34

S 	 -78.4218 	 -18.0021 	 -53.5328 	 
C 	 -80.0891 	 -18.0968 	 -52.9841 	 
C 	 -80.9199 	 -18.3774 	 -54.0302 	 
C 	 -80.2584 	 -18.4474 	 -55.2831 	 
C 	 -78.8724 	 -18.2336 	 -55.2183 	 
H 	 -80.8318 	 -18.647 	 -56.1795 	 
C 	 -82.4203 	 -18.2931 	 -53.8919 	 
H 	 -82.6245 	 -18.5534 	 -52.8334 	 
H 	 -82.9125 	 -19.0809 	 -54.5134 	 
C 	 -83.032 	 -16.8969 	 -54.2525 	 
H 	 -82.4883 	 -16.2814 	 -53.6714 	 
H 	 -82.8202 	 -16.5269 	 -55.2763 	 
C 	 -84.5157 	 -16.8106 	 -53.8523 	 
H 	 -84.7692 	 -15.8327 	 -53.5513 	 
H 	 -85.27 	 -17.0665 	 -54.5233 	 
H 	 -84.7095 	 -17.4797 	 -52.9485 	 
S 	 -76.2806 	 -18.9646 	 -55.7961 	 
C 	 -75.7554 	 -18.9891 	 -57.4097 	 
C 	 -76.7581 	 -18.8314 	 -58.3295 	 
C 	 -78.0264 	 -18.5036 	 -57.6816 	 
C 	 -77.9164 	 -18.5279 	 -56.2696 	 
H 	 -76.5404 	 -18.7748 	 -59.3892 	 
C 	 -79.2812 	 -18.1008 	 -58.5243 	 
H 	 -78.9237 	 -17.3099 	 -59.2822 	 
H 	 -79.9221 	 -17.5714 	 -57.8409 	 
C 	 -79.8701 	 -19.3072 	 -59.3213 	 
H 	 -79.181 	 -19.5677 	 -60.1804 	 
H 	 -80.7655 	 -18.9072 	 -59.7561 	 
C 	 -80.1992 	 -20.5795 	 -58.5195 	 
H 	 -79.3062 	 -20.9455 	 -58.0437 	 
H 	 -80.6435 	 -21.4213 	 -59.1265 	 
H 	 -80.9441 	 -20.316 	 -57.8404 	 
H 	 -80.361 	 -17.9935 	 -51.9304 	 
H 	 -74.7491 	 -19.0292 	 -57.7177 	 
