34

S 	 -113.649 	 35.7911 	 -121.631 	 
C 	 -113.486 	 34.1348 	 -121.804 	 
C 	 -114.537 	 33.632 	 -122.523 	 
C 	 -115.593 	 34.5948 	 -122.804 	 
C 	 -115.27 	 35.867 	 -122.402 	 
H 	 -116.539 	 34.4672 	 -123.282 	 
C 	 -114.587 	 32.1978 	 -123.008 	 
H 	 -113.952 	 32.1592 	 -123.927 	 
H 	 -115.574 	 31.886 	 -123.346 	 
C 	 -114.263 	 31.0679 	 -121.969 	 
H 	 -114.072 	 30.1873 	 -122.477 	 
H 	 -113.318 	 31.2613 	 -121.434 	 
C 	 -115.38 	 30.728 	 -120.919 	 
H 	 -116.272 	 30.2431 	 -121.419 	 
H 	 -114.905 	 30.1094 	 -120.082 	 
H 	 -115.778 	 31.6409 	 -120.435 	 
S 	 -114.849 	 38.2367 	 -123.699 	 
C 	 -116.223 	 39.2475 	 -124.107 	 
C 	 -117.368 	 38.7944 	 -123.439 	 
C 	 -117.246 	 37.5516 	 -122.731 	 
C 	 -115.933 	 37.1343 	 -122.821 	 
H 	 -118.391 	 39.2701 	 -123.551 	 
C 	 -118.337 	 36.8779 	 -121.873 	 
H 	 -118.919 	 37.6569 	 -121.33 	 
H 	 -117.993 	 36.1838 	 -121.122 	 
C 	 -119.36 	 35.96 	 -122.7 	 
H 	 -120.083 	 35.4444 	 -122.019 	 
H 	 -118.771 	 35.2371 	 -123.271 	 
C 	 -120.201 	 36.7585 	 -123.643 	 
H 	 -120.994 	 37.4538 	 -123.235 	 
H 	 -120.767 	 35.9661 	 -124.232 	 
H 	 -119.593 	 37.3964 	 -124.354 	 
H 	 -112.577 	 33.6035 	 -121.523 	 
H 	 -116.269 	 40.1402 	 -124.707 	 
