34

S 	 45.0974 	 -20.5214 	 -113.884 	 
C 	 46.8342 	 -20.3782 	 -113.998 	 
C 	 47.412 	 -20.3423 	 -112.699 	 
C 	 46.4378 	 -20.1655 	 -111.675 	 
C 	 45.111 	 -20.1574 	 -112.134 	 
H 	 46.5603 	 -19.9636 	 -110.583 	 
C 	 48.9289 	 -20.4031 	 -112.342 	 
H 	 49.189 	 -19.915 	 -111.349 	 
H 	 49.3856 	 -19.6609 	 -113.064 	 
C 	 49.4597 	 -21.817 	 -112.488 	 
H 	 49.2235 	 -22.3328 	 -113.388 	 
H 	 50.5021 	 -21.7385 	 -112.624 	 
C 	 49.32 	 -22.6516 	 -111.197 	 
H 	 49.7246 	 -22.1802 	 -110.337 	 
H 	 48.2541 	 -22.9601 	 -110.927 	 
H 	 49.805 	 -23.5796 	 -111.364 	 
S 	 42.5549 	 -19.1189 	 -111.932 	 
C 	 41.5549 	 -19.6577 	 -110.592 	 
C 	 42.1088 	 -20.7271 	 -109.915 	 
C 	 43.4152 	 -21.0917 	 -110.353 	 
C 	 43.8796 	 -20.1891 	 -111.367 	 
H 	 41.5374 	 -21.1217 	 -109.178 	 
C 	 44.2311 	 -22.1952 	 -109.764 	 
H 	 43.9846 	 -22.2647 	 -108.808 	 
H 	 45.2693 	 -21.9686 	 -109.73 	 
C 	 43.9899 	 -23.584 	 -110.383 	 
H 	 42.9634 	 -24.0163 	 -110.308 	 
H 	 44.5933 	 -24.3251 	 -109.895 	 
C 	 44.3711 	 -23.5136 	 -111.905 	 
H 	 45.3239 	 -23.089 	 -112.111 	 
H 	 43.7259 	 -22.8964 	 -112.523 	 
H 	 44.5048 	 -24.5246 	 -112.321 	 
H 	 47.383 	 -20.7158 	 -114.883 	 
H 	 40.5122 	 -19.3592 	 -110.412 	 
