34

S 	 -34.4781 	 5.4896 	 6.37645 	 
C 	 -34.9378 	 7.0828 	 6.82111 	 
C 	 -35.324 	 7.78144 	 5.67246 	 
C 	 -35.3712 	 6.99657 	 4.52039 	 
C 	 -34.9541 	 5.71049 	 4.73224 	 
H 	 -35.7432 	 7.23313 	 3.62499 	 
C 	 -35.9245 	 9.20389 	 5.67479 	 
H 	 -35.8507 	 9.66472 	 6.67184 	 
H 	 -36.9696 	 9.06681 	 5.39404 	 
C 	 -35.2921 	 10.1827 	 4.60528 	 
H 	 -35.3107 	 9.75747 	 3.59913 	 
H 	 -35.9175 	 11.113 	 4.54559 	 
C 	 -33.805 	 10.4938 	 4.83082 	 
H 	 -33.4281 	 11.2383 	 4.14713 	 
H 	 -33.6642 	 10.9933 	 5.82472 	 
H 	 -33.3426 	 9.53617 	 4.85285 	 
S 	 -36.2447 	 3.45161 	 4.18151 	 
C 	 -35.7157 	 2.59197 	 2.70464 	 
C 	 -34.6921 	 3.21833 	 2.05224 	 
C 	 -34.2072 	 4.38958 	 2.70783 	 
C 	 -34.9983 	 4.63186 	 3.83706 	 
H 	 -34.3923 	 2.81689 	 1.08992 	 
C 	 -33.0939 	 5.26835 	 2.26025 	 
H 	 -32.9806 	 6.08496 	 3.01299 	 
H 	 -33.4336 	 5.78841 	 1.31872 	 
C 	 -31.6702 	 4.65187 	 2.03111 	 
H 	 -30.9474 	 5.42472 	 1.80839 	 
H 	 -31.8105 	 4.01816 	 1.12073 	 
C 	 -31.1718 	 3.9258 	 3.32538 	 
H 	 -31.6223 	 2.92925 	 3.48281 	 
H 	 -31.3499 	 4.63942 	 4.11585 	 
H 	 -30.0569 	 3.95194 	 3.25165 	 
H 	 -34.8717 	 7.59571 	 7.75072 	 
H 	 -36.0635 	 1.55222 	 2.51253 	 
