34

S 	 -78.8934 	 -16.6737 	 -57.9309 	 
C 	 -79.3464 	 -15.8484 	 -56.4735 	 
C 	 -79.4985 	 -14.4677 	 -56.7059 	 
C 	 -79.2912 	 -14.0638 	 -58.0743 	 
C 	 -78.7942 	 -15.113 	 -58.8058 	 
H 	 -79.4989 	 -13.0734 	 -58.4973 	 
C 	 -79.9616 	 -13.5254 	 -55.6147 	 
H 	 -80.3904 	 -14.0881 	 -54.9247 	 
H 	 -80.7499 	 -12.9412 	 -55.9981 	 
C 	 -78.8876 	 -12.7573 	 -54.8643 	 
H 	 -78.1086 	 -13.4809 	 -54.6065 	 
H 	 -78.4452 	 -12.0365 	 -55.5353 	 
C 	 -79.3061 	 -12.0107 	 -53.6007 	 
H 	 -79.5786 	 -12.6041 	 -52.7418 	 
H 	 -78.3631 	 -11.4585 	 -53.4108 	 
H 	 -80.053 	 -11.2889 	 -53.7766 	 
S 	 -77.2006 	 -14.7061 	 -61.0597 	 
C 	 -77.8995 	 -15.1367 	 -62.5776 	 
C 	 -79.1771 	 -15.5738 	 -62.475 	 
C 	 -79.7437 	 -15.5226 	 -61.1632 	 
C 	 -78.7225 	 -15.1729 	 -60.2246 	 
H 	 -79.7139 	 -15.8751 	 -63.352 	 
C 	 -81.2003 	 -16.0226 	 -60.8173 	 
H 	 -81.3613 	 -15.9892 	 -59.747 	 
H 	 -81.1456 	 -17.0555 	 -61.1012 	 
C 	 -82.4842 	 -15.4486 	 -61.58 	 
H 	 -83.3793 	 -15.7287 	 -61.0573 	 
H 	 -82.5842 	 -15.7363 	 -62.6247 	 
C 	 -82.5447 	 -13.9021 	 -61.5524 	 
H 	 -81.843 	 -13.4448 	 -62.2478 	 
H 	 -82.2672 	 -13.5226 	 -60.5672 	 
H 	 -83.5143 	 -13.5049 	 -61.8149 	 
H 	 -79.5928 	 -16.4485 	 -55.6029 	 
H 	 -77.3178 	 -15.238 	 -63.4644 	 
