34

S 	 -132.316 	 24.3928 	 -21.6392 	 
C 	 -131.959 	 25.815 	 -20.8101 	 
C 	 -130.908 	 25.5812 	 -19.9223 	 
C 	 -130.337 	 24.3067 	 -20.0117 	 
C 	 -130.909 	 23.5593 	 -21.0394 	 
H 	 -129.538 	 23.8585 	 -19.4345 	 
C 	 -130.362 	 26.5723 	 -18.9 	 
H 	 -130.23 	 27.5373 	 -19.3846 	 
H 	 -129.304 	 26.3218 	 -18.7051 	 
C 	 -131.13 	 26.6614 	 -17.5515 	 
H 	 -132.077 	 27.2747 	 -17.738 	 
H 	 -131.297 	 25.6144 	 -17.259 	 
C 	 -130.344 	 27.4866 	 -16.534 	 
H 	 -129.259 	 27.2746 	 -16.4786 	 
H 	 -130.326 	 28.4853 	 -16.8288 	 
H 	 -130.584 	 27.4252 	 -15.506 	 
S 	 -130.209 	 22.2476 	 -23.157 	 
C 	 -129.743 	 20.5704 	 -23.1254 	 
C 	 -129.627 	 20.0905 	 -21.8065 	 
C 	 -130.081 	 21.0452 	 -20.852 	 
C 	 -130.508 	 22.2534 	 -21.4591 	 
H 	 -129.286 	 19.0266 	 -21.6641 	 
C 	 -130.127 	 20.7489 	 -19.3901 	 
H 	 -129.304 	 21.1367 	 -18.7969 	 
H 	 -129.802 	 19.7198 	 -19.2185 	 
C 	 -131.453 	 21.1275 	 -18.6732 	 
H 	 -132.229 	 20.4322 	 -18.9301 	 
H 	 -131.845 	 22.1083 	 -18.9406 	 
C 	 -131.241 	 21.2092 	 -17.1788 	 
H 	 -130.781 	 22.0984 	 -16.8166 	 
H 	 -130.918 	 20.3536 	 -16.5907 	 
H 	 -132.255 	 21.3159 	 -16.7577 	 
H 	 -132.516 	 26.7592 	 -20.934 	 
H 	 -129.652 	 20.0533 	 -24.022 	 
