34

S 	 -68.5297 	 10.0121 	 -73.3032 	 
C 	 -70.1151 	 10.0068 	 -72.6176 	 
C 	 -70.0786 	 10.4637 	 -71.2941 	 
C 	 -68.7745 	 10.7198 	 -70.8744 	 
C 	 -67.7795 	 10.6015 	 -71.8837 	 
H 	 -68.4881 	 10.9864 	 -69.9084 	 
C 	 -71.27 	 10.5303 	 -70.2749 	 
H 	 -71.981 	 10.1168 	 -70.9245 	 
H 	 -71.5384 	 11.6061 	 -69.9631 	 
C 	 -71.1899 	 9.69165 	 -68.9791 	 
H 	 -70.2111 	 9.9329 	 -68.6131 	 
H 	 -71.8174 	 9.87105 	 -68.0676 	 
C 	 -71.3111 	 8.19198 	 -69.2702 	 
H 	 -72.3058 	 7.81867 	 -69.4417 	 
H 	 -70.6897 	 7.81417 	 -70.1104 	 
H 	 -70.9802 	 7.68596 	 -68.3511 	 
S 	 -65.8108 	 12.359 	 -72.6887 	 
C 	 -64.374 	 12.5061 	 -71.7361 	 
C 	 -64.2743 	 11.581 	 -70.7254 	 
C 	 -65.4816 	 10.8073 	 -70.6348 	 
C 	 -66.4186 	 11.0181 	 -71.7003 	 
H 	 -63.4427 	 11.5941 	 -70.1144 	 
C 	 -65.7419 	 9.79082 	 -69.6026 	 
H 	 -66.6981 	 9.29328 	 -69.8823 	 
H 	 -65.724 	 10.3525 	 -68.6397 	 
C 	 -64.7948 	 8.60298 	 -69.2718 	 
H 	 -65.2355 	 8.02947 	 -68.4908 	 
H 	 -63.9308 	 9.02085 	 -68.7613 	 
C 	 -64.471 	 7.69621 	 -70.5334 	 
H 	 -65.3004 	 7.43972 	 -71.1548 	 
H 	 -63.9323 	 6.74373 	 -70.2685 	 
H 	 -63.7352 	 8.28387 	 -71.1006 	 
H 	 -71.0781 	 9.73355 	 -73.1548 	 
H 	 -63.7004 	 13.3527 	 -71.7761 	 
