34

S 	 -111.477 	 72.859 	 -9.21731 	 
C 	 -110.394 	 74.1369 	 -9.68749 	 
C 	 -109.15 	 73.7032 	 -10.1519 	 
C 	 -109.016 	 72.3223 	 -9.88304 	 
C 	 -110.211 	 71.6489 	 -9.56037 	 
H 	 -108.091 	 71.7127 	 -10.0588 	 
C 	 -108.02 	 74.6013 	 -10.714 	 
H 	 -108.372 	 75.6676 	 -10.664 	 
H 	 -107.905 	 74.4428 	 -11.753 	 
C 	 -106.691 	 74.3829 	 -9.93781 	 
H 	 -106.824 	 74.983 	 -9.0403 	 
H 	 -106.618 	 73.2952 	 -9.73929 	 
C 	 -105.427 	 74.7411 	 -10.7483 	 
H 	 -105.326 	 75.8143 	 -10.9225 	 
H 	 -104.59 	 74.3593 	 -10.2145 	 
H 	 -105.39 	 74.2006 	 -11.7213 	 
S 	 -111.373 	 69.9564 	 -7.71161 	 
C 	 -111.005 	 68.2395 	 -7.63853 	 
C 	 -110.173 	 67.9504 	 -8.6574 	 
C 	 -109.838 	 69.0147 	 -9.60038 	 
C 	 -110.34 	 70.2731 	 -9.12876 	 
H 	 -109.886 	 66.8889 	 -8.86611 	 
C 	 -108.929 	 68.8566 	 -10.7952 	 
H 	 -108.51 	 67.8503 	 -10.7429 	 
H 	 -108.098 	 69.497 	 -10.5651 	 
C 	 -109.562 	 69.2093 	 -12.119 	 
H 	 -108.843 	 69.357 	 -12.9387 	 
H 	 -110.067 	 70.1193 	 -12.1971 	 
C 	 -110.519 	 68.1036 	 -12.5629 	 
H 	 -110.047 	 67.1694 	 -12.4576 	 
H 	 -110.859 	 68.0779 	 -13.5725 	 
H 	 -111.361 	 68.0362 	 -11.8261 	 
H 	 -110.476 	 75.2057 	 -9.48887 	 
H 	 -111.263 	 67.5486 	 -6.86747 	 
