34

S 	 -79.677 	 -1.03209 	 -59.9589 	 
C 	 -79.2741 	 -0.400159 	 -61.4761 	 
C 	 -78.7089 	 -1.29829 	 -62.3572 	 
C 	 -78.7654 	 -2.59354 	 -61.7884 	 
C 	 -79.2519 	 -2.60283 	 -60.5605 	 
H 	 -78.4209 	 -3.52983 	 -62.2452 	 
C 	 -78.3569 	 -1.1635 	 -63.7891 	 
H 	 -77.813 	 -0.251382 	 -63.9419 	 
H 	 -79.2614 	 -0.905588 	 -64.2883 	 
C 	 -77.3175 	 -2.20233 	 -64.3482 	 
H 	 -76.44 	 -2.06795 	 -63.7103 	 
H 	 -77.7998 	 -3.11232 	 -64.1911 	 
C 	 -77.1328 	 -1.91531 	 -65.8789 	 
H 	 -76.5215 	 -0.941793 	 -66.0139 	 
H 	 -76.6726 	 -2.7617 	 -66.2747 	 
H 	 -78.0098 	 -1.79601 	 -66.392 	 
S 	 -78.4446 	 -3.64561 	 -58.1519 	 
C 	 -78.7953 	 -5.3449 	 -57.7908 	 
C 	 -79.5289 	 -5.92278 	 -58.775 	 
C 	 -79.8767 	 -4.98823 	 -59.8602 	 
C 	 -79.3309 	 -3.75016 	 -59.7079 	 
H 	 -79.6921 	 -6.9703 	 -58.8433 	 
C 	 -80.6511 	 -5.42413 	 -61.0092 	 
H 	 -79.984 	 -5.56807 	 -61.8826 	 
H 	 -81.0874 	 -4.51688 	 -61.4158 	 
C 	 -81.7833 	 -6.425 	 -60.7401 	 
H 	 -81.4157 	 -7.2796 	 -60.1041 	 
H 	 -81.9678 	 -6.98753 	 -61.6634 	 
C 	 -83.1226 	 -5.87372 	 -60.2149 	 
H 	 -82.9349 	 -5.63714 	 -59.185 	 
H 	 -83.9107 	 -6.61701 	 -60.117 	 
H 	 -83.5637 	 -5.14197 	 -60.8503 	 
H 	 -79.2173 	 0.655353 	 -61.6868 	 
H 	 -78.3217 	 -5.93628 	 -56.9771 	 
