34

S 	 -95.6587 	 11.8856 	 -120.013 	 
C 	 -94.8321 	 10.5483 	 -119.243 	 
C 	 -94.5708 	 10.8443 	 -117.937 	 
C 	 -94.8612 	 12.2316 	 -117.615 	 
C 	 -95.6662 	 12.807 	 -118.594 	 
H 	 -94.7407 	 12.731 	 -116.689 	 
C 	 -93.7493 	 10.0792 	 -116.884 	 
H 	 -92.7773 	 10.5627 	 -116.72 	 
H 	 -93.4348 	 9.1921 	 -117.377 	 
C 	 -94.5261 	 9.6828 	 -115.694 	 
H 	 -93.8373 	 9.34767 	 -114.856 	 
H 	 -95.0593 	 10.5241 	 -115.233 	 
C 	 -95.5377 	 8.52459 	 -116.061 	 
H 	 -96.4557 	 8.88715 	 -116.565 	 
H 	 -95.0453 	 7.74002 	 -116.602 	 
H 	 -95.8996 	 8.04513 	 -115.199 	 
S 	 -95.6371 	 15.5537 	 -118.759 	 
C 	 -97.0594 	 16.4982 	 -118.336 	 
C 	 -98.1308 	 15.6073 	 -118.164 	 
C 	 -97.8272 	 14.2053 	 -118.203 	 
C 	 -96.4523 	 13.9999 	 -118.447 	 
H 	 -99.0966 	 15.9378 	 -117.95 	 
C 	 -98.7408 	 13.1243 	 -117.703 	 
H 	 -99.7231 	 13.5762 	 -117.51 	 
H 	 -98.3163 	 12.8601 	 -116.701 	 
C 	 -99.0258 	 11.9191 	 -118.64 	 
H 	 -98.0864 	 11.5592 	 -118.997 	 
H 	 -99.4391 	 12.2974 	 -119.556 	 
C 	 -99.8188 	 10.8731 	 -117.956 	 
H 	 -99.2259 	 10.4337 	 -117.103 	 
H 	 -100.047 	 10.0212 	 -118.684 	 
H 	 -100.803 	 11.2381 	 -117.599 	 
H 	 -94.4746 	 9.62354 	 -119.595 	 
H 	 -97.2213 	 17.6111 	 -118.336 	 
