34

S 	 -37.2231 	 3.39918 	 3.77974 	 
C 	 -36.9069 	 2.0445 	 2.69999 	 
C 	 -35.6126 	 1.52873 	 2.88804 	 
C 	 -34.9371 	 2.21229 	 3.89234 	 
C 	 -35.6175 	 3.20116 	 4.50262 	 
H 	 -33.9612 	 1.94956 	 4.37455 	 
C 	 -34.9213 	 0.328864 	 2.2688 	 
H 	 -34.5628 	 -0.203255 	 3.09369 	 
H 	 -34.0343 	 0.637487 	 1.66391 	 
C 	 -35.7437 	 -0.612276 	 1.40031 	 
H 	 -36.346 	 -1.21802 	 2.05961 	 
H 	 -36.3945 	 -0.0696164 	 0.724169 	 
C 	 -34.9056 	 -1.6007 	 0.706313 	 
H 	 -35.6212 	 -2.0971 	 0.0137162 	 
H 	 -34.1096 	 -1.24107 	 0.14778 	 
H 	 -34.4152 	 -2.32767 	 1.43463 	 
S 	 -36.0762 	 4.12144 	 7.09226 	 
C 	 -34.7916 	 4.95104 	 7.89778 	 
C 	 -33.7852 	 5.30743 	 7.08976 	 
C 	 -33.8933 	 4.73122 	 5.83358 	 
C 	 -35.145 	 4.11693 	 5.57911 	 
H 	 -32.9339 	 5.86534 	 7.51486 	 
C 	 -32.7498 	 4.68409 	 4.82967 	 
H 	 -32.9985 	 4.16855 	 3.93372 	 
H 	 -32.048 	 3.98113 	 5.35406 	 
C 	 -32.064 	 6.04141 	 4.50158 	 
H 	 -31.2942 	 5.98501 	 3.73992 	 
H 	 -31.6379 	 6.48034 	 5.41003 	 
C 	 -33.0074 	 6.97935 	 3.72302 	 
H 	 -33.3208 	 6.45741 	 2.77676 	 
H 	 -32.4268 	 7.83927 	 3.48786 	 
H 	 -33.8606 	 7.32462 	 4.22909 	 
H 	 -37.6223 	 1.58999 	 2.03564 	 
H 	 -34.7138 	 5.06184 	 8.93198 	 
