34

S 	 -48.5432 	 23.9403 	 30.6219 	 
C 	 -47.7296 	 25.3269 	 31.3285 	 
C 	 -46.9298 	 24.8611 	 32.3326 	 
C 	 -46.77 	 23.4616 	 32.4081 	 
C 	 -47.6208 	 22.765 	 31.6028 	 
H 	 -46.0186 	 22.9092 	 32.9339 	 
C 	 -46.2537 	 25.7634 	 33.306 	 
H 	 -45.9329 	 26.6841 	 32.7724 	 
H 	 -45.3257 	 25.2146 	 33.594 	 
C 	 -47.1204 	 26.092 	 34.5638 	 
H 	 -47.9976 	 26.6064 	 34.1107 	 
H 	 -47.5909 	 25.161 	 34.902 	 
C 	 -46.5752 	 26.792 	 35.8121 	 
H 	 -46.0397 	 27.7656 	 35.6829 	 
H 	 -47.474 	 26.9638 	 36.5044 	 
H 	 -45.8382 	 26.0998 	 36.3501 	 
S 	 -47.2447 	 20.9962 	 29.5902 	 
C 	 -46.9969 	 19.3089 	 29.8654 	 
C 	 -47.1661 	 19.0735 	 31.1795 	 
C 	 -47.4886 	 20.2235 	 31.9601 	 
C 	 -47.5143 	 21.3955 	 31.2381 	 
H 	 -47.125 	 18.0461 	 31.5169 	 
C 	 -47.6612 	 20.1027 	 33.4492 	 
H 	 -47.2201 	 20.9411 	 33.9322 	 
H 	 -46.9757 	 19.3115 	 33.751 	 
C 	 -49.0631 	 19.7908 	 33.9463 	 
H 	 -49.3286 	 19.0203 	 33.2594 	 
H 	 -49.8091 	 20.5617 	 33.684 	 
C 	 -49.4266 	 19.3946 	 35.446 	 
H 	 -49.0377 	 20.0713 	 36.1793 	 
H 	 -49.1394 	 18.3612 	 35.6745 	 
H 	 -50.5347 	 19.3635 	 35.5755 	 
H 	 -47.7658 	 26.3456 	 30.9362 	 
H 	 -46.6906 	 18.4748 	 29.1634 	 
