34

S 	 44.7752 	 -15.7632 	 -117.868 	 
C 	 45.5515 	 -16.8011 	 -116.677 	 
C 	 46.8924 	 -17.0264 	 -117.088 	 
C 	 47.1353 	 -16.6097 	 -118.41 	 
C 	 46.1846 	 -15.7481 	 -118.919 	 
H 	 48.051 	 -16.7699 	 -118.965 	 
C 	 47.8443 	 -17.734 	 -116.159 	 
H 	 48.4035 	 -18.4053 	 -116.777 	 
H 	 47.1326 	 -18.4544 	 -115.575 	 
C 	 48.6825 	 -16.8148 	 -115.238 	 
H 	 49.4276 	 -16.22 	 -115.825 	 
H 	 47.9719 	 -16.0661 	 -114.769 	 
C 	 49.3418 	 -17.5529 	 -114.04 	 
H 	 49.6934 	 -16.7618 	 -113.393 	 
H 	 48.5954 	 -18.0151 	 -113.423 	 
H 	 50.2003 	 -18.185 	 -114.209 	 
S 	 46.8036 	 -15.8315 	 -121.616 	 
C 	 46.7704 	 -14.3769 	 -122.549 	 
C 	 46.4946 	 -13.2741 	 -121.733 	 
C 	 46.3831 	 -13.6058 	 -120.334 	 
C 	 46.2979 	 -14.987 	 -120.117 	 
H 	 46.508 	 -12.2912 	 -122.098 	 
C 	 46.0463 	 -12.5704 	 -119.28 	 
H 	 46.9483 	 -12.5247 	 -118.698 	 
H 	 45.2628 	 -13.1698 	 -118.761 	 
C 	 45.4829 	 -11.2546 	 -119.802 	 
H 	 44.5145 	 -11.3665 	 -120.126 	 
H 	 45.9996 	 -10.8837 	 -120.588 	 
C 	 45.3751 	 -10.2428 	 -118.575 	 
H 	 44.7422 	 -10.5814 	 -117.725 	 
H 	 44.9957 	 -9.3086 	 -118.947 	 
H 	 46.3932 	 -10.0002 	 -118.162 	 
H 	 45.1642 	 -17.1466 	 -115.717 	 
H 	 46.9548 	 -14.4407 	 -123.581 	 
