34

S 	 28.9513 	 -31.6287 	 -132.304 	 
C 	 29.3898 	 -30.5705 	 -133.601 	 
C 	 30.1945 	 -29.5822 	 -133.054 	 
C 	 30.533 	 -29.7852 	 -131.681 	 
C 	 29.9201 	 -30.9297 	 -131.14 	 
H 	 31.1541 	 -29.1396 	 -131.08 	 
C 	 30.7774 	 -28.3638 	 -133.775 	 
H 	 30.6028 	 -28.2979 	 -134.84 	 
H 	 31.8488 	 -28.5089 	 -133.919 	 
C 	 30.5403 	 -27.0363 	 -133.086 	 
H 	 29.5736 	 -26.9418 	 -132.676 	 
H 	 31.1295 	 -26.964 	 -132.242 	 
C 	 30.7662 	 -25.8733 	 -133.993 	 
H 	 30.4 	 -25.9616 	 -135.028 	 
H 	 30.3334 	 -24.9251 	 -133.481 	 
H 	 31.8609 	 -25.6988 	 -134.06 	 
S 	 29.017 	 -32.9402 	 -129.388 	 
C 	 29.5834 	 -32.932 	 -127.759 	 
C 	 30.3338 	 -31.81 	 -127.432 	 
C 	 30.5015 	 -30.9536 	 -128.551 	 
C 	 29.8759 	 -31.3964 	 -129.715 	 
H 	 30.8475 	 -31.6905 	 -126.482 	 
C 	 31.4928 	 -29.8084 	 -128.453 	 
H 	 31.5667 	 -29.3967 	 -127.515 	 
H 	 31.0481 	 -29.0006 	 -129.022 	 
C 	 32.9244 	 -30.0503 	 -129.047 	 
H 	 32.8184 	 -30.2414 	 -130.091 	 
H 	 33.1573 	 -31.0425 	 -128.753 	 
C 	 33.8864 	 -28.9679 	 -128.716 	 
H 	 33.331 	 -27.9807 	 -128.904 	 
H 	 34.7337 	 -29.1603 	 -129.291 	 
H 	 34.1641 	 -28.926 	 -127.667 	 
H 	 29.0151 	 -30.4966 	 -134.62 	 
H 	 29.2661 	 -33.6535 	 -126.992 	 
