34

S 	 -115.312 	 28.9247 	 -19.716 	 
C 	 -115.345 	 28.2176 	 -21.3096 	 
C 	 -116.426 	 28.6968 	 -22.0185 	 
C 	 -117.168 	 29.6892 	 -21.3418 	 
C 	 -116.686 	 29.9227 	 -20.0274 	 
H 	 -118.117 	 30.1786 	 -21.6051 	 
C 	 -116.974 	 28.2791 	 -23.4267 	 
H 	 -116.4 	 27.4258 	 -23.7112 	 
H 	 -116.683 	 28.9087 	 -24.2126 	 
C 	 -118.485 	 28.1817 	 -23.6025 	 
H 	 -118.976 	 29.1339 	 -23.4534 	 
H 	 -118.689 	 27.9701 	 -24.7021 	 
C 	 -118.926 	 27.0798 	 -22.6218 	 
H 	 -119.136 	 27.2957 	 -21.5321 	 
H 	 -119.86 	 26.7834 	 -23.0962 	 
H 	 -118.218 	 26.1647 	 -22.7351 	 
S 	 -117.105 	 29.8754 	 -17.2702 	 
C 	 -118.07 	 31.058 	 -16.433 	 
C 	 -118.502 	 31.9886 	 -17.3382 	 
C 	 -118.22 	 31.6032 	 -18.7266 	 
C 	 -117.411 	 30.5182 	 -18.8817 	 
H 	 -119.053 	 32.8476 	 -17.0948 	 
C 	 -118.763 	 32.4825 	 -19.855 	 
H 	 -119.418 	 33.2895 	 -19.547 	 
H 	 -119.408 	 31.9161 	 -20.5828 	 
C 	 -117.732 	 33.2314 	 -20.755 	 
H 	 -118.258 	 33.8632 	 -21.4076 	 
H 	 -117.184 	 32.574 	 -21.4548 	 
C 	 -116.62 	 34.0248 	 -19.8992 	 
H 	 -116.047 	 33.4342 	 -19.2298 	 
H 	 -117.112 	 34.7294 	 -19.2483 	 
H 	 -115.992 	 34.5557 	 -20.5942 	 
H 	 -114.604 	 27.6329 	 -21.7609 	 
H 	 -118.139 	 31.0676 	 -15.3565 	 
