34

S 	 -104.478 	 60.3855 	 -3.08186 	 
C 	 -103.2 	 61.389 	 -3.57205 	 
C 	 -103.611 	 62.2919 	 -4.56339 	 
C 	 -105.008 	 62.2558 	 -4.75493 	 
C 	 -105.609 	 61.218 	 -4.09419 	 
H 	 -105.619 	 62.9812 	 -5.3259 	 
C 	 -102.656 	 63.3411 	 -5.26766 	 
H 	 -101.73 	 62.8175 	 -5.27697 	 
H 	 -102.534 	 64.1897 	 -4.60263 	 
C 	 -102.939 	 63.8656 	 -6.69834 	 
H 	 -103.413 	 63.1048 	 -7.34407 	 
H 	 -103.604 	 64.7108 	 -6.6899 	 
C 	 -101.676 	 64.1558 	 -7.52583 	 
H 	 -101.895 	 64.7136 	 -8.47085 	 
H 	 -100.854 	 64.7445 	 -7.03159 	 
H 	 -101.173 	 63.1951 	 -7.80848 	 
S 	 -107.402 	 59.1358 	 -4.46444 	 
C 	 -109.041 	 59.5062 	 -4.68122 	 
C 	 -109.308 	 60.7839 	 -4.30302 	 
C 	 -108.14 	 61.6179 	 -4.08398 	 
C 	 -106.99 	 60.8347 	 -4.21401 	 
H 	 -110.321 	 61.0056 	 -4.27785 	 
C 	 -108.258 	 63.0867 	 -3.77177 	 
H 	 -107.657 	 63.3856 	 -2.93239 	 
H 	 -109.266 	 63.1513 	 -3.48051 	 
C 	 -108.107 	 64.111 	 -4.96264 	 
H 	 -108.127 	 63.6388 	 -5.96892 	 
H 	 -107.141 	 64.5404 	 -4.9952 	 
C 	 -109.05 	 65.3238 	 -4.86492 	 
H 	 -110.114 	 65.0004 	 -4.94293 	 
H 	 -108.967 	 66.0217 	 -5.72511 	 
H 	 -108.956 	 65.7885 	 -3.91936 	 
H 	 -102.216 	 61.3261 	 -3.20718 	 
H 	 -109.849 	 58.8662 	 -5.07595 	 
