34

S 	 -66.3971 	 19.3806 	 -116.033 	 
C 	 -66.9721 	 19.6237 	 -117.673 	 
C 	 -66.036 	 20.1851 	 -118.455 	 
C 	 -64.8745 	 20.5051 	 -117.712 	 
C 	 -64.8744 	 20.0911 	 -116.424 	 
H 	 -63.9699 	 21.0551 	 -118.117 	 
C 	 -66.2687 	 20.5281 	 -119.968 	 
H 	 -67.2475 	 21.0768 	 -120.102 	 
H 	 -66.4342 	 19.5135 	 -120.371 	 
C 	 -65.145 	 21.086 	 -120.774 	 
H 	 -64.8554 	 22.0462 	 -120.348 	 
H 	 -64.3653 	 20.2908 	 -120.799 	 
C 	 -65.5714 	 21.3315 	 -122.217 	 
H 	 -65.8215 	 20.3723 	 -122.755 	 
H 	 -66.4404 	 21.9548 	 -122.36 	 
H 	 -64.7359 	 21.8366 	 -122.658 	 
S 	 -63.7554 	 18.9484 	 -114.185 	 
C 	 -62.2673 	 19.6411 	 -113.518 	 
C 	 -61.9089 	 20.8187 	 -114.18 	 
C 	 -62.8108 	 21.0972 	 -115.212 	 
C 	 -63.8018 	 20.1667 	 -115.406 	 
H 	 -61.1719 	 21.433 	 -113.908 	 
C 	 -62.6309 	 22.2764 	 -116.106 	 
H 	 -62.4413 	 21.9565 	 -117.133 	 
H 	 -61.6821 	 22.6921 	 -115.733 	 
C 	 -63.5606 	 23.3872 	 -115.813 	 
H 	 -63.5269 	 23.824 	 -114.853 	 
H 	 -64.5958 	 23.1322 	 -116.048 	 
C 	 -63.1792 	 24.5037 	 -116.81 	 
H 	 -63.1258 	 24.1359 	 -117.824 	 
H 	 -62.1953 	 24.9582 	 -116.578 	 
H 	 -63.8809 	 25.3281 	 -116.79 	 
H 	 -67.8548 	 19.2067 	 -118.041 	 
H 	 -61.6999 	 19.1495 	 -112.736 	 
