34

S 	 -57.1746 	 8.51552 	 -94.1705 	 
C 	 -55.5095 	 8.01967 	 -94.1751 	 
C 	 -54.5724 	 9.06739 	 -94.4367 	 
C 	 -55.3041 	 10.2272 	 -94.758 	 
C 	 -56.6784 	 10.1005 	 -94.6993 	 
H 	 -54.8279 	 11.0974 	 -95.2053 	 
C 	 -53.0381 	 8.90105 	 -94.5978 	 
H 	 -52.654 	 8.45322 	 -93.734 	 
H 	 -52.5249 	 9.78834 	 -94.5462 	 
C 	 -52.5095 	 8.3085 	 -95.8924 	 
H 	 -52.9948 	 7.38804 	 -95.9535 	 
H 	 -52.8606 	 8.86574 	 -96.8013 	 
C 	 -50.9821 	 8.23244 	 -96.0492 	 
H 	 -50.5846 	 7.91181 	 -95.075 	 
H 	 -50.7392 	 7.5904 	 -96.8984 	 
H 	 -50.5781 	 9.18037 	 -96.2677 	 
S 	 -59.3818 	 10.7801 	 -94.2576 	 
C 	 -60.0139 	 12.3594 	 -94.7474 	 
C 	 -58.9425 	 13.1314 	 -95.1621 	 
C 	 -57.7311 	 12.4017 	 -95.4103 	 
C 	 -57.7514 	 11.1157 	 -94.9253 	 
H 	 -59.1988 	 14.144 	 -95.3425 	 
C 	 -56.4807 	 13.0868 	 -95.8541 	 
H 	 -56.6908 	 13.734 	 -96.686 	 
H 	 -55.8978 	 12.3858 	 -96.3886 	 
C 	 -55.717 	 13.7877 	 -94.858 	 
H 	 -55.6082 	 13.1168 	 -94.0466 	 
H 	 -56.2766 	 14.6144 	 -94.3716 	 
C 	 -54.3845 	 14.4311 	 -95.3194 	 
H 	 -54.5754 	 14.9526 	 -96.2902 	 
H 	 -53.6227 	 13.567 	 -95.4466 	 
H 	 -53.9753 	 15.2319 	 -94.6363 	 
H 	 -55.1634 	 7.08538 	 -93.8353 	 
H 	 -60.8851 	 12.8664 	 -94.3974 	 
