34

S 	 -64.1859 	 18.6359 	 -119.671 	 
C 	 -62.9616 	 17.3627 	 -119.723 	 
C 	 -63.3406 	 16.2615 	 -118.949 	 
C 	 -64.5389 	 16.4866 	 -118.17 	 
C 	 -65.0791 	 17.8047 	 -118.326 	 
H 	 -65.1481 	 15.7222 	 -117.701 	 
C 	 -62.6101 	 14.9264 	 -118.745 	 
H 	 -62.9726 	 14.3779 	 -119.601 	 
H 	 -63.1299 	 14.4237 	 -117.839 	 
C 	 -61.1064 	 14.9203 	 -118.71 	 
H 	 -60.8169 	 15.7128 	 -119.469 	 
H 	 -60.913 	 15.2847 	 -117.698 	 
C 	 -60.6269 	 13.5042 	 -119.036 	 
H 	 -61.1728 	 12.7924 	 -118.489 	 
H 	 -60.8233 	 13.1673 	 -120.064 	 
H 	 -59.5767 	 13.3255 	 -118.81 	 
S 	 -66.9759 	 19.6449 	 -118.531 	 
C 	 -68.3571 	 19.6332 	 -117.483 	 
C 	 -68.3145 	 18.6332 	 -116.618 	 
C 	 -67.1281 	 17.7723 	 -116.75 	 
C 	 -66.3383 	 18.2091 	 -117.822 	 
H 	 -69.0663 	 18.3592 	 -115.893 	 
C 	 -66.8537 	 16.5533 	 -115.888 	 
H 	 -67.2658 	 16.912 	 -114.954 	 
H 	 -65.7525 	 16.4171 	 -115.592 	 
C 	 -67.5133 	 15.2957 	 -116.443 	 
H 	 -67.3083 	 15.1597 	 -117.514 	 
H 	 -68.5308 	 15.5811 	 -116.705 	 
C 	 -67.3669 	 14.0493 	 -115.559 	 
H 	 -66.4404 	 13.9762 	 -114.999 	 
H 	 -67.5138 	 13.037 	 -116.07 	 
H 	 -68.2544 	 14.1088 	 -114.975 	 
H 	 -62.027 	 17.3873 	 -120.231 	 
H 	 -69.1351 	 20.2519 	 -117.682 	 
