34

S 	 29.7775 	 1.40586 	 -115.456 	 
C 	 28.2095 	 2.16384 	 -115.923 	 
C 	 27.0957 	 1.4425 	 -115.487 	 
C 	 27.5307 	 0.353911 	 -114.656 	 
C 	 28.9009 	 0.383203 	 -114.31 	 
H 	 26.8986 	 -0.363639 	 -114.048 	 
C 	 25.643 	 1.55953 	 -115.878 	 
H 	 25.2435 	 0.812902 	 -116.563 	 
H 	 25.5726 	 2.43835 	 -116.477 	 
C 	 24.658 	 1.69789 	 -114.705 	 
H 	 24.4723 	 0.683854 	 -114.274 	 
H 	 24.9911 	 2.418 	 -113.885 	 
C 	 23.2173 	 1.97587 	 -115.138 	 
H 	 22.9619 	 2.89075 	 -115.66 	 
H 	 22.8289 	 1.09285 	 -115.759 	 
H 	 22.6511 	 1.796 	 -114.178 	 
S 	 30.9033 	 -1.39194 	 -113.977 	 
C 	 31.1786 	 -1.99081 	 -112.444 	 
C 	 30.5429 	 -1.33277 	 -111.385 	 
C 	 29.6529 	 -0.429689 	 -111.948 	 
C 	 29.6019 	 -0.437458 	 -113.368 	 
H 	 30.819 	 -1.47813 	 -110.35 	 
C 	 28.8969 	 0.612004 	 -111.189 	 
H 	 28.2546 	 1.13613 	 -111.805 	 
H 	 29.6999 	 1.32724 	 -110.825 	 
C 	 28.2589 	 -0.0104407 	 -109.899 	 
H 	 28.9813 	 -0.639673 	 -109.417 	 
H 	 27.4924 	 -0.747025 	 -110.238 	 
C 	 27.7423 	 0.946604 	 -108.93 	 
H 	 28.6027 	 1.40222 	 -108.466 	 
H 	 27.1582 	 0.51282 	 -108.144 	 
H 	 27.1018 	 1.73083 	 -109.461 	 
H 	 28.0804 	 2.99861 	 -116.609 	 
H 	 31.9748 	 -2.64263 	 -112.353 	 
