34

S 	 -89.4249 	 -5.33665 	 -118.177 	 
C 	 -89.1507 	 -5.90078 	 -116.513 	 
C 	 -90.1271 	 -5.27736 	 -115.704 	 
C 	 -91.0422 	 -4.46665 	 -116.437 	 
C 	 -90.9645 	 -4.53052 	 -117.787 	 
H 	 -91.8614 	 -3.8475 	 -116.038 	 
C 	 -90.1533 	 -5.22865 	 -114.195 	 
H 	 -90.1236 	 -6.29447 	 -113.864 	 
H 	 -91.1066 	 -4.88304 	 -113.813 	 
C 	 -89.0311 	 -4.41039 	 -113.534 	 
H 	 -88.0769 	 -4.82892 	 -113.749 	 
H 	 -89.0719 	 -3.37507 	 -113.845 	 
C 	 -89.284 	 -4.17323 	 -111.974 	 
H 	 -88.8297 	 -4.98361 	 -111.368 	 
H 	 -88.8868 	 -3.24574 	 -111.578 	 
H 	 -90.4159 	 -4.23769 	 -111.634 	 
S 	 -91.4045 	 -2.4835 	 -119.496 	 
C 	 -92.6852 	 -2.58936 	 -120.596 	 
C 	 -93.6399 	 -3.54121 	 -120.22 	 
C 	 -93.1004 	 -4.43182 	 -119.249 	 
C 	 -91.793 	 -4.05964 	 -118.852 	 
H 	 -94.6021 	 -3.60229 	 -120.777 	 
C 	 -93.8554 	 -5.73087 	 -118.944 	 
H 	 -93.1864 	 -6.50798 	 -118.723 	 
H 	 -94.3531 	 -6.14365 	 -119.853 	 
C 	 -94.8253 	 -5.54172 	 -117.793 	 
H 	 -95.3662 	 -4.68401 	 -117.979 	 
H 	 -94.4135 	 -5.40468 	 -116.835 	 
C 	 -95.8867 	 -6.5485 	 -117.683 	 
H 	 -96.6623 	 -6.33822 	 -116.909 	 
H 	 -95.4548 	 -7.5608 	 -117.344 	 
H 	 -96.4693 	 -6.71123 	 -118.549 	 
H 	 -88.3048 	 -6.45514 	 -116.086 	 
H 	 -92.8422 	 -1.92614 	 -121.417 	 
