34

S 	 -53.808 	 14.9063 	 23.3616 	 
C 	 -54.7191 	 13.6119 	 23.9411 	 
C 	 -55.7828 	 14.0914 	 24.6797 	 
C 	 -55.7028 	 15.4426 	 25.0473 	 
C 	 -54.6983 	 16.0806 	 24.3612 	 
H 	 -56.3268 	 16.065 	 25.6 	 
C 	 -56.9658 	 13.2337 	 25.2098 	 
H 	 -57.2105 	 13.4526 	 26.2775 	 
H 	 -56.4959 	 12.2587 	 25.2241 	 
C 	 -58.2455 	 13.2584 	 24.2834 	 
H 	 -58.7773 	 14.1208 	 24.7635 	 
H 	 -57.8201 	 13.6368 	 23.3867 	 
C 	 -58.9715 	 11.9592 	 23.9025 	 
H 	 -58.2776 	 11.3284 	 23.3575 	 
H 	 -59.2569 	 11.2834 	 24.7546 	 
H 	 -59.9189 	 12.1459 	 23.3267 	 
S 	 -52.6064 	 17.8211 	 24.9069 	 
C 	 -52.8908 	 19.5158 	 25.1279 	 
C 	 -54.1884 	 19.8523 	 24.8 	 
C 	 -54.9903 	 18.7577 	 24.5797 	 
C 	 -54.2975 	 17.5318 	 24.5396 	 
H 	 -54.5463 	 20.8832 	 24.8928 	 
C 	 -56.4738 	 18.9401 	 24.1182 	 
H 	 -56.8921 	 19.6491 	 24.8506 	 
H 	 -57.0291 	 18.0036 	 24.1567 	 
C 	 -56.6806 	 19.5056 	 22.6407 	 
H 	 -56.2504 	 20.5205 	 22.6325 	 
H 	 -57.7124 	 19.6981 	 22.4349 	 
C 	 -55.8481 	 18.8271 	 21.5496 	 
H 	 -56.298 	 17.7888 	 21.3675 	 
H 	 -54.7862 	 18.77 	 21.5088 	 
H 	 -56.0399 	 19.4031 	 20.6827 	 
H 	 -54.6658 	 12.6263 	 23.5407 	 
H 	 -52.0855 	 20.0682 	 25.4777 	 
