34

S 	 -60.9982 	 -3.42082 	 -16.9676 	 
C 	 -62.2356 	 -3.19763 	 -15.7676 	 
C 	 -61.7132 	 -2.5958 	 -14.6482 	 
C 	 -60.3257 	 -2.37254 	 -14.7542 	 
C 	 -59.7627 	 -2.83432 	 -15.9055 	 
H 	 -59.6683 	 -2.10132 	 -13.9314 	 
C 	 -62.5095 	 -1.99553 	 -13.5389 	 
H 	 -63.5196 	 -2.00732 	 -13.731 	 
H 	 -62.2029 	 -0.944844 	 -13.5168 	 
C 	 -62.4412 	 -2.67007 	 -12.1674 	 
H 	 -61.3719 	 -2.69712 	 -11.8011 	 
H 	 -62.9071 	 -2.12878 	 -11.4203 	 
C 	 -63.0899 	 -4.12156 	 -12.3024 	 
H 	 -63.3012 	 -4.55706 	 -11.3404 	 
H 	 -64.0691 	 -4.14882 	 -12.7155 	 
H 	 -62.4382 	 -4.80706 	 -12.9167 	 
S 	 -57.5034 	 -1.39011 	 -15.5835 	 
C 	 -56.0704 	 -1.83147 	 -16.3842 	 
C 	 -56.2311 	 -3.04405 	 -17.0402 	 
C 	 -57.542 	 -3.556 	 -16.97 	 
C 	 -58.3369 	 -2.75252 	 -16.2489 	 
H 	 -55.4839 	 -3.52261 	 -17.5385 	 
C 	 -57.9326 	 -4.93866 	 -17.5533 	 
H 	 -58.9815 	 -4.85332 	 -17.5206 	 
H 	 -57.5486 	 -5.74615 	 -16.9496 	 
C 	 -57.4943 	 -5.07041 	 -18.9935 	 
H 	 -57.8364 	 -6.02022 	 -19.3478 	 
H 	 -56.3921 	 -5.12265 	 -19.1638 	 
C 	 -58.1053 	 -3.97591 	 -19.9416 	 
H 	 -59.0045 	 -4.29315 	 -20.3249 	 
H 	 -57.6557 	 -3.94971 	 -20.8689 	 
H 	 -58.5047 	 -3.03596 	 -19.3489 	 
H 	 -63.2296 	 -3.41212 	 -15.8762 	 
H 	 -55.1164 	 -1.33278 	 -16.2474 	 
