34

S 	 -141.823 	 31.0623 	 -13.5314 	 
C 	 -140.34 	 31.9191 	 -13.9804 	 
C 	 -139.84 	 31.3944 	 -15.1947 	 
C 	 -140.587 	 30.221 	 -15.5985 	 
C 	 -141.755 	 29.9866 	 -14.8811 	 
H 	 -140.511 	 29.749 	 -16.5546 	 
C 	 -138.648 	 31.888 	 -15.9829 	 
H 	 -138.006 	 31.0157 	 -16.0835 	 
H 	 -138.181 	 32.7377 	 -15.5337 	 
C 	 -139.022 	 32.4354 	 -17.4332 	 
H 	 -139.738 	 31.7956 	 -18.0701 	 
H 	 -139.616 	 33.3468 	 -17.3339 	 
C 	 -137.72 	 32.991 	 -18.2422 	 
H 	 -137.113 	 32.1622 	 -18.4221 	 
H 	 -137.958 	 33.5432 	 -19.0902 	 
H 	 -137.148 	 33.7757 	 -17.7163 	 
S 	 -144.341 	 29.5474 	 -15.3308 	 
C 	 -144.973 	 27.8563 	 -15.4671 	 
C 	 -143.894 	 26.9111 	 -15.5692 	 
C 	 -142.658 	 27.602 	 -15.4178 	 
C 	 -142.705 	 28.9487 	 -15.207 	 
H 	 -144.196 	 25.8751 	 -15.6903 	 
C 	 -141.368 	 26.814 	 -15.3912 	 
H 	 -141.658 	 25.9378 	 -14.8714 	 
H 	 -140.724 	 27.3127 	 -14.7252 	 
C 	 -140.743 	 26.5836 	 -16.78 	 
H 	 -140.595 	 27.5643 	 -17.2635 	 
H 	 -141.437 	 26.0158 	 -17.27 	 
C 	 -139.471 	 25.7278 	 -16.5898 	 
H 	 -138.818 	 26.1649 	 -15.8245 	 
H 	 -138.925 	 25.729 	 -17.5512 	 
H 	 -139.759 	 24.7086 	 -16.3514 	 
H 	 -139.853 	 32.7373 	 -13.4925 	 
H 	 -145.974 	 27.5193 	 -15.3689 	 
