34

S 	 -106.122 	 52.541 	 -72.1806 	 
C 	 -107.511 	 52.6547 	 -73.2248 	 
C 	 -108.643 	 52.4688 	 -72.4186 	 
C 	 -108.45 	 52.3069 	 -71.0187 	 
C 	 -107.068 	 52.1741 	 -70.7083 	 
H 	 -109.232 	 52.1625 	 -70.241 	 
C 	 -110.098 	 52.6222 	 -72.8942 	 
H 	 -110.832 	 52.1155 	 -72.2116 	 
H 	 -109.975 	 52.2251 	 -73.9092 	 
C 	 -110.516 	 54.0408 	 -73.1429 	 
H 	 -111.596 	 54.0071 	 -73.0785 	 
H 	 -110.176 	 54.7556 	 -72.377 	 
C 	 -110.215 	 54.5548 	 -74.5891 	 
H 	 -110.991 	 54.2574 	 -75.3118 	 
H 	 -110.157 	 55.6603 	 -74.6776 	 
H 	 -109.317 	 54.0991 	 -74.9437 	 
S 	 -105.342 	 50.5332 	 -69.4317 	 
C 	 -104.94 	 50.7055 	 -67.7423 	 
C 	 -105.564 	 51.8254 	 -67.2 	 
C 	 -106.491 	 52.4166 	 -68.1251 	 
C 	 -106.432 	 51.8752 	 -69.4205 	 
H 	 -105.266 	 52.2126 	 -66.2311 	 
C 	 -107.399 	 53.6009 	 -67.6595 	 
H 	 -107.471 	 53.6144 	 -66.5735 	 
H 	 -108.488 	 53.3762 	 -67.9665 	 
C 	 -107.185 	 55.0145 	 -68.1538 	 
H 	 -107.413 	 55.0954 	 -69.2032 	 
H 	 -106.149 	 55.3117 	 -68.0631 	 
C 	 -108.101 	 56.0641 	 -67.5173 	 
H 	 -108.075 	 55.9293 	 -66.4077 	 
H 	 -109.089 	 56.0387 	 -67.8977 	 
H 	 -107.697 	 56.9833 	 -67.7177 	 
H 	 -107.443 	 52.7029 	 -74.2653 	 
H 	 -104.026 	 50.2977 	 -67.2741 	 
