34

S 	 -90.3047 	 -9.0537 	 -115.383 	 
C 	 -91.649 	 -9.74003 	 -116.357 	 
C 	 -92.0097 	 -8.92727 	 -117.412 	 
C 	 -91.3537 	 -7.65257 	 -117.3 	 
C 	 -90.3909 	 -7.626 	 -116.323 	 
H 	 -91.5686 	 -6.90091 	 -117.948 	 
C 	 -93.1464 	 -9.26609 	 -118.433 	 
H 	 -93.1345 	 -10.3868 	 -118.575 	 
H 	 -92.8654 	 -8.72705 	 -119.315 	 
C 	 -94.5828 	 -8.92292 	 -118.093 	 
H 	 -94.7747 	 -7.85303 	 -118.09 	 
H 	 -95.1468 	 -9.39112 	 -118.966 	 
C 	 -95.0949 	 -9.56451 	 -116.748 	 
H 	 -96.2057 	 -9.40705 	 -116.532 	 
H 	 -94.892 	 -10.6313 	 -116.501 	 
H 	 -94.6953 	 -8.99936 	 -115.912 	 
S 	 -87.7682 	 -7.04084 	 -115.965 	 
C 	 -87.2588 	 -5.36339 	 -115.874 	 
C 	 -88.3616 	 -4.57474 	 -116.052 	 
C 	 -89.5935 	 -5.22417 	 -116.026 	 
C 	 -89.4557 	 -6.57643 	 -115.927 	 
H 	 -88.1715 	 -3.51878 	 -116.242 	 
C 	 -90.9724 	 -4.48717 	 -116.212 	 
H 	 -91.3846 	 -4.51443 	 -117.24 	 
H 	 -90.7989 	 -3.46518 	 -115.997 	 
C 	 -92.138 	 -4.85557 	 -115.285 	 
H 	 -92.4145 	 -5.85309 	 -115.587 	 
H 	 -92.9227 	 -4.18089 	 -115.651 	 
C 	 -91.8072 	 -4.65495 	 -113.793 	 
H 	 -92.7629 	 -4.65059 	 -113.179 	 
H 	 -91.3335 	 -3.72325 	 -113.727 	 
H 	 -91.1623 	 -5.43594 	 -113.391 	 
H 	 -92.1391 	 -10.7094 	 -116.173 	 
H 	 -86.2799 	 -4.9437 	 -116.064 	 
