34

S 	 -85.6046 	 -3.19937 	 7.8965 	 
C 	 -85.5362 	 -3.09425 	 6.16979 	 
C 	 -84.5657 	 -3.93232 	 5.62433 	 
C 	 -83.8293 	 -4.64474 	 6.63641 	 
C 	 -84.2853 	 -4.32266 	 7.92891 	 
H 	 -83.055 	 -5.33478 	 6.51413 	 
C 	 -84.2472 	 -4.0169 	 4.10403 	 
H 	 -85.2138 	 -4.28077 	 3.65654 	 
H 	 -83.5312 	 -4.80593 	 4.05172 	 
C 	 -83.7798 	 -2.62678 	 3.57492 	 
H 	 -83.6653 	 -2.66551 	 2.43348 	 
H 	 -84.6401 	 -1.95053 	 3.61579 	 
C 	 -82.4875 	 -2.10471 	 4.20219 	 
H 	 -82.4023 	 -1.00293 	 3.95295 	 
H 	 -82.4603 	 -2.29364 	 5.2777 	 
H 	 -81.594 	 -2.73263 	 3.88112 	 
S 	 -84.6 	 -5.54674 	 10.4296 	 
C 	 -83.2887 	 -5.53342 	 11.482 	 
C 	 -82.1212 	 -5.21547 	 10.8843 	 
C 	 -82.3312 	 -4.71095 	 9.5438 	 
C 	 -83.6862 	 -4.72801 	 9.20823 	 
H 	 -81.1614 	 -5.33985 	 11.4458 	 
C 	 -81.2318 	 -4.09157 	 8.72286 	 
H 	 -80.7719 	 -3.32148 	 9.36382 	 
H 	 -81.7416 	 -3.57367 	 7.9072 	 
C 	 -80.2998 	 -5.08996 	 8.0882 	 
H 	 -80.779 	 -6.01075 	 7.72551 	 
H 	 -79.565 	 -5.37904 	 8.80502 	 
C 	 -79.547 	 -4.59822 	 6.86005 	 
H 	 -79.1452 	 -3.59536 	 6.91684 	 
H 	 -80.208 	 -4.72799 	 6.00192 	 
H 	 -78.6174 	 -5.2049 	 6.71103 	 
H 	 -86.0951 	 -2.38848 	 5.5701 	 
H 	 -83.4839 	 -5.8108 	 12.4377 	 
