34

S 	 -133.697 	 69.4148 	 -60.2728 	 
C 	 -132.812 	 67.9617 	 -60.1261 	 
C 	 -133.401 	 66.9904 	 -60.9581 	 
C 	 -134.569 	 67.4665 	 -61.6081 	 
C 	 -134.779 	 68.8329 	 -61.4499 	 
H 	 -135.237 	 66.9704 	 -62.2974 	 
C 	 -132.8 	 65.6654 	 -61.465 	 
H 	 -131.769 	 65.8058 	 -61.7437 	 
H 	 -133.299 	 65.4984 	 -62.4022 	 
C 	 -133.025 	 64.4645 	 -60.4914 	 
H 	 -134.123 	 64.4973 	 -60.3145 	 
H 	 -132.586 	 63.5727 	 -60.8534 	 
C 	 -132.185 	 64.531 	 -59.1623 	 
H 	 -131.614 	 65.4707 	 -59.0414 	 
H 	 -132.666 	 64.4047 	 -58.1756 	 
H 	 -131.458 	 63.671 	 -59.1571 	 
S 	 -137.339 	 69.7574 	 -60.901 	 
C 	 -138.379 	 70.1615 	 -62.172 	 
C 	 -137.755 	 70.1041 	 -63.387 	 
C 	 -136.424 	 69.6648 	 -63.3393 	 
C 	 -135.998 	 69.4595 	 -62.03 	 
H 	 -138.177 	 70.3211 	 -64.3946 	 
C 	 -135.432 	 69.4638 	 -64.4875 	 
H 	 -134.451 	 69.2339 	 -64.1546 	 
H 	 -135.218 	 70.4044 	 -64.9403 	 
C 	 -135.936 	 68.4789 	 -65.6244 	 
H 	 -136.899 	 68.7747 	 -65.9858 	 
H 	 -136.181 	 67.4683 	 -65.196 	 
C 	 -135.01 	 68.5354 	 -66.8501 	 
H 	 -134.712 	 69.5877 	 -67.1295 	 
H 	 -135.414 	 68.0338 	 -67.7322 	 
H 	 -134.103 	 68.0598 	 -66.611 	 
H 	 -131.873 	 67.9862 	 -59.6691 	 
H 	 -139.408 	 70.2854 	 -62.0284 	 
