34

S 	 -130.648 	 6.50787 	 -8.83061 	 
C 	 -129.049 	 6.47963 	 -9.62407 	 
C 	 -128.526 	 7.83296 	 -9.48046 	 
C 	 -129.507 	 8.76344 	 -8.9569 	 
C 	 -130.685 	 8.19394 	 -8.63088 	 
H 	 -129.305 	 9.83643 	 -8.81699 	 
C 	 -127.033 	 8.32388 	 -9.52029 	 
H 	 -126.993 	 9.01905 	 -10.3688 	 
H 	 -126.435 	 7.51889 	 -9.80592 	 
C 	 -126.531 	 8.9874 	 -8.25681 	 
H 	 -125.596 	 9.44914 	 -8.37601 	 
H 	 -127.258 	 9.69336 	 -7.87119 	 
C 	 -126.225 	 7.91874 	 -7.23969 	 
H 	 -127.017 	 7.94134 	 -6.57414 	 
H 	 -126.042 	 6.91464 	 -7.59649 	 
H 	 -125.397 	 8.08477 	 -6.61405 	 
S 	 -132.307 	 8.59569 	 -6.4382 	 
C 	 -133.649 	 9.75852 	 -6.6003 	 
C 	 -133.552 	 10.3987 	 -7.80321 	 
C 	 -132.602 	 9.90369 	 -8.68745 	 
C 	 -131.829 	 8.912 	 -8.11107 	 
H 	 -134.243 	 11.2199 	 -7.94231 	 
C 	 -132.354 	 10.5285 	 -10.1472 	 
H 	 -131.335 	 10.7169 	 -10.2452 	 
H 	 -132.844 	 11.4971 	 -10.0277 	 
C 	 -132.962 	 9.76207 	 -11.3912 	 
H 	 -132.468 	 8.76394 	 -11.3031 	 
H 	 -132.741 	 10.0781 	 -12.4067 	 
C 	 -134.515 	 9.46339 	 -11.2521 	 
H 	 -134.758 	 8.75806 	 -10.4253 	 
H 	 -134.789 	 8.98781 	 -12.2354 	 
H 	 -135.09 	 10.4403 	 -11.136 	 
H 	 -128.377 	 5.63851 	 -9.78219 	 
H 	 -134.148 	 9.94628 	 -5.6808 	 
