34

S 	 -54.8883 	 -50.238 	 -80.4957 	 
C 	 -54.7395 	 -50.6479 	 -82.1084 	 
C 	 -54.6835 	 -49.5011 	 -82.8752 	 
C 	 -54.687 	 -48.2995 	 -82.1444 	 
C 	 -54.8957 	 -48.551 	 -80.8117 	 
H 	 -54.6659 	 -47.3315 	 -82.5715 	 
C 	 -54.3539 	 -49.3748 	 -84.296 	 
H 	 -53.8655 	 -50.3147 	 -84.6988 	 
H 	 -53.5801 	 -48.6554 	 -84.299 	 
C 	 -55.4428 	 -48.9525 	 -85.2676 	 
H 	 -55.9485 	 -47.9931 	 -84.9752 	 
H 	 -54.9526 	 -48.7575 	 -86.1994 	 
C 	 -56.4879 	 -50.0173 	 -85.5202 	 
H 	 -57.0339 	 -49.7775 	 -86.4988 	 
H 	 -55.9832 	 -50.9423 	 -85.7583 	 
H 	 -57.2239 	 -50.2029 	 -84.7155 	 
S 	 -53.6523 	 -48.1755 	 -78.4233 	 
C 	 -54.0694 	 -46.7818 	 -77.4451 	 
C 	 -54.9499 	 -45.9396 	 -78.173 	 
C 	 -55.441 	 -46.499 	 -79.4499 	 
C 	 -54.8105 	 -47.7084 	 -79.6986 	 
H 	 -55.2684 	 -44.9699 	 -77.7721 	 
C 	 -56.2588 	 -45.7224 	 -80.4419 	 
H 	 -57.2926 	 -45.8771 	 -80.1078 	 
H 	 -56.2282 	 -46.071 	 -81.4228 	 
C 	 -56.0178 	 -44.2083 	 -80.4846 	 
H 	 -54.9931 	 -44.0712 	 -80.7865 	 
H 	 -56.1799 	 -43.8777 	 -79.5011 	 
C 	 -57.0867 	 -43.3747 	 -81.3064 	 
H 	 -56.7167 	 -42.3303 	 -81.2509 	 
H 	 -58.101 	 -43.5198 	 -80.9768 	 
H 	 -57.0373 	 -43.7653 	 -82.3054 	 
H 	 -54.7026 	 -51.6395 	 -82.4828 	 
H 	 -53.7212 	 -46.6228 	 -76.4009 	 
