34

S 	 -117.743 	 59.7447 	 -37.9004 	 
C 	 -118.692 	 60.6388 	 -39.0205 	 
C 	 -119.896 	 60.9985 	 -38.4146 	 
C 	 -119.958 	 60.587 	 -37.0617 	 
C 	 -118.822 	 59.9838 	 -36.5684 	 
H 	 -120.757 	 60.7507 	 -36.2613 	 
C 	 -121.011 	 61.8231 	 -39.1771 	 
H 	 -120.445 	 62.6396 	 -39.5551 	 
H 	 -121.658 	 62.0861 	 -38.4157 	 
C 	 -121.601 	 60.9746 	 -40.3035 	 
H 	 -122.404 	 61.5304 	 -40.7687 	 
H 	 -120.845 	 60.7434 	 -41.0594 	 
C 	 -122.191 	 59.6746 	 -39.8323 	 
H 	 -121.458 	 59.0806 	 -39.3087 	 
H 	 -122.964 	 59.9376 	 -39.1697 	 
H 	 -122.572 	 59.0733 	 -40.6845 	 
S 	 -117.451 	 60.6358 	 -34.3434 	 
C 	 -118.094 	 60.1231 	 -32.7934 	 
C 	 -119.137 	 59.2465 	 -32.9547 	 
C 	 -119.471 	 58.9071 	 -34.2846 	 
C 	 -118.628 	 59.5615 	 -35.1625 	 
H 	 -119.619 	 58.8079 	 -32.1425 	 
C 	 -120.651 	 58.0486 	 -34.6648 	 
H 	 -121.414 	 58.5919 	 -35.2784 	 
H 	 -121.135 	 57.7511 	 -33.7645 	 
C 	 -120.215 	 56.7418 	 -35.4232 	 
H 	 -119.852 	 57.0027 	 -36.4341 	 
H 	 -121.194 	 56.1772 	 -35.5774 	 
C 	 -119.1 	 55.9751 	 -34.6696 	 
H 	 -118.239 	 56.6013 	 -34.4306 	 
H 	 -118.856 	 55.1226 	 -35.337 	 
H 	 -119.356 	 55.4978 	 -33.6643 	 
H 	 -118.57 	 60.6968 	 -40.0854 	 
H 	 -117.726 	 60.3768 	 -31.863 	 
