34

S 	 -107.444 	 4.01912 	 -112.04 	 
C 	 -108.114 	 4.67541 	 -113.471 	 
C 	 -107.416 	 4.29805 	 -114.676 	 
C 	 -106.106 	 3.69053 	 -114.328 	 
C 	 -105.996 	 3.4829 	 -112.941 	 
H 	 -105.394 	 3.2829 	 -115.045 	 
C 	 -107.753 	 4.76441 	 -116.097 	 
H 	 -108.678 	 5.37905 	 -116.012 	 
H 	 -107.945 	 3.84602 	 -116.686 	 
C 	 -106.718 	 5.61853 	 -116.758 	 
H 	 -106.653 	 6.54212 	 -116.166 	 
H 	 -105.81 	 5.09966 	 -116.685 	 
C 	 -107.12 	 5.89543 	 -118.228 	 
H 	 -107.937 	 6.50972 	 -118.175 	 
H 	 -106.332 	 6.34964 	 -118.768 	 
H 	 -107.437 	 4.94373 	 -118.577 	 
S 	 -104.076 	 3.96976 	 -111.051 	 
C 	 -102.928 	 2.70888 	 -110.689 	 
C 	 -103.009 	 1.68793 	 -111.509 	 
C 	 -104.112 	 1.76036 	 -112.417 	 
C 	 -104.896 	 2.86835 	 -112.156 	 
H 	 -102.206 	 0.957957 	 -111.487 	 
C 	 -104.493 	 0.728372 	 -113.458 	 
H 	 -103.63 	 0.596349 	 -114.153 	 
H 	 -105.428 	 0.937904 	 -113.95 	 
C 	 -104.57 	 -0.688467 	 -112.859 	 
H 	 -105.109 	 -0.710004 	 -111.944 	 
H 	 -103.548 	 -1.06937 	 -112.668 	 
C 	 -105.25 	 -1.7427 	 -113.813 	 
H 	 -105.293 	 -2.78976 	 -113.369 	 
H 	 -104.818 	 -1.84471 	 -114.865 	 
H 	 -106.224 	 -1.38407 	 -113.901 	 
H 	 -109.063 	 5.27699 	 -113.503 	 
H 	 -102.184 	 2.75653 	 -109.923 	 
