34

S 	 -39.6935 	 -9.98827 	 15.6612 	 
C 	 -41.2037 	 -10.3219 	 16.3513 	 
C 	 -41.3982 	 -11.6513 	 16.4814 	 
C 	 -40.3729 	 -12.511 	 15.9755 	 
C 	 -39.3825 	 -11.7123 	 15.3655 	 
H 	 -40.2937 	 -13.5594 	 16.0755 	 
C 	 -42.5889 	 -12.2943 	 17.1332 	 
H 	 -43.163 	 -12.9351 	 16.455 	 
H 	 -43.2727 	 -11.4865 	 17.3315 	 
C 	 -42.1501 	 -12.946 	 18.4279 	 
H 	 -41.562 	 -13.8568 	 18.1523 	 
H 	 -41.4689 	 -12.1965 	 18.9377 	 
C 	 -43.3475 	 -13.1576 	 19.3572 	 
H 	 -44.0806 	 -13.8512 	 18.9746 	 
H 	 -43.0532 	 -13.428 	 20.398 	 
H 	 -43.8578 	 -12.2168 	 19.3743 	 
S 	 -37.0925 	 -13.3764 	 15.6684 	 
C 	 -35.9996 	 -13.5992 	 14.3496 	 
C 	 -36.1863 	 -12.5323 	 13.4429 	 
C 	 -37.4448 	 -11.8491 	 13.5861 	 
C 	 -38.1235 	 -12.2266 	 14.7625 	 
H 	 -35.4787 	 -12.3908 	 12.67 	 
C 	 -37.9657 	 -10.8769 	 12.5472 	 
H 	 -38.7827 	 -10.3409 	 13.0313 	 
H 	 -38.3986 	 -11.4915 	 11.7506 	 
C 	 -36.9973 	 -9.87578 	 11.9774 	 
H 	 -37.525 	 -9.33236 	 11.2761 	 
H 	 -36.1195 	 -10.2993 	 11.4821 	 
C 	 -36.5021 	 -8.9404 	 13.0826 	 
H 	 -35.6613 	 -9.25706 	 13.6817 	 
H 	 -37.3142 	 -8.71961 	 13.7648 	 
H 	 -36.2833 	 -7.98646 	 12.7514 	 
H 	 -41.9677 	 -9.65822 	 16.6889 	 
H 	 -35.1681 	 -14.3365 	 14.2763 	 
