34

S 	 -50.558 	 9.28917 	 -16.9558 	 
C 	 -50.7911 	 9.38283 	 -15.2311 	 
C 	 -50.0291 	 10.426 	 -14.7052 	 
C 	 -49.3465 	 11.1796 	 -15.7091 	 
C 	 -49.5339 	 10.7052 	 -16.9773 	 
H 	 -48.7615 	 12.0186 	 -15.3694 	 
C 	 -50.1083 	 10.9354 	 -13.2927 	 
H 	 -49.087 	 11.1528 	 -13.0149 	 
H 	 -50.5024 	 10.1741 	 -12.6791 	 
C 	 -51.1613 	 12.003 	 -13.098 	 
H 	 -50.7583 	 12.8572 	 -13.585 	 
H 	 -52.0057 	 11.7269 	 -13.7134 	 
C 	 -51.5041 	 12.1747 	 -11.6519 	 
H 	 -50.6966 	 12.0746 	 -10.9835 	 
H 	 -51.8152 	 13.1987 	 -11.4309 	 
H 	 -52.3261 	 11.4993 	 -11.4425 	 
S 	 -48.9324 	 10.2476 	 -19.6357 	 
C 	 -48.2416 	 11.4623 	 -20.6681 	 
C 	 -48.2318 	 12.6771 	 -19.9991 	 
C 	 -48.6803 	 12.5832 	 -18.6544 	 
C 	 -49.0484 	 11.2629 	 -18.2562 	 
H 	 -47.9507 	 13.6045 	 -20.3807 	 
C 	 -48.5296 	 13.8002 	 -17.806 	 
H 	 -49.18 	 13.6581 	 -16.9356 	 
H 	 -49.0947 	 14.5746 	 -18.3055 	 
C 	 -47.1589 	 14.2963 	 -17.4496 	 
H 	 -46.5203 	 14.0973 	 -18.3104 	 
H 	 -46.8214 	 13.8233 	 -16.5587 	 
C 	 -47.1437 	 15.8324 	 -17.1457 	 
H 	 -47.2695 	 16.1226 	 -16.1427 	 
H 	 -47.7133 	 16.3508 	 -17.8447 	 
H 	 -46.1396 	 16.1912 	 -17.3638 	 
H 	 -51.5576 	 8.93331 	 -14.6704 	 
H 	 -48.0153 	 11.2403 	 -21.7061 	 
