34

S 	 -80.3262 	 -2.74929 	 -58.1623 	 
C 	 -78.6176 	 -2.96073 	 -57.7283 	 
C 	 -78.463 	 -3.92502 	 -56.7437 	 
C 	 -79.668 	 -4.64513 	 -56.5106 	 
C 	 -80.7797 	 -4.19393 	 -57.2253 	 
H 	 -79.9152 	 -5.41114 	 -55.8192 	 
C 	 -77.3077 	 -4.19054 	 -55.8856 	 
H 	 -76.4412 	 -4.0305 	 -56.4162 	 
H 	 -77.2794 	 -5.25222 	 -55.5081 	 
C 	 -77.2521 	 -3.26818 	 -54.6571 	 
H 	 -77.1454 	 -2.2146 	 -55.0231 	 
H 	 -78.1963 	 -3.25398 	 -54.0699 	 
C 	 -76.0188 	 -3.56156 	 -53.7608 	 
H 	 -75.0846 	 -3.24356 	 -54.2133 	 
H 	 -76.2066 	 -3.05088 	 -52.7909 	 
H 	 -75.8263 	 -4.59735 	 -53.65 	 
S 	 -82.6698 	 -5.47909 	 -55.5964 	 
C 	 -84.3644 	 -5.57481 	 -56.2314 	 
C 	 -84.4632 	 -5.083 	 -57.5212 	 
C 	 -83.2029 	 -4.64608 	 -58.0392 	 
C 	 -82.1288 	 -4.67905 	 -57.1196 	 
H 	 -85.3264 	 -5.1307 	 -58.0963 	 
C 	 -83.047 	 -4.30064 	 -59.5397 	 
H 	 -82.4888 	 -5.15629 	 -59.9206 	 
H 	 -82.3834 	 -3.42551 	 -59.5965 	 
C 	 -84.2477 	 -3.96424 	 -60.4474 	 
H 	 -85.1315 	 -4.66671 	 -60.2976 	 
H 	 -83.7834 	 -4.04113 	 -61.4655 	 
C 	 -84.6659 	 -2.48839 	 -60.2637 	 
H 	 -85.0866 	 -2.29891 	 -59.348 	 
H 	 -85.3906 	 -2.1919 	 -61.0203 	 
H 	 -83.8875 	 -1.70809 	 -60.301 	 
H 	 -77.8193 	 -2.33707 	 -58.0995 	 
H 	 -85.1521 	 -6.09322 	 -55.6693 	 
