34

S 	 -107.629 	 55.4528 	 -87.4305 	 
C 	 -109.225 	 56.1782 	 -87.4846 	 
C 	 -109.368 	 57.1051 	 -88.5252 	 
C 	 -108.115 	 57.2143 	 -89.2695 	 
C 	 -107.083 	 56.4769 	 -88.7008 	 
H 	 -107.917 	 57.9427 	 -90.0167 	 
C 	 -110.634 	 57.863 	 -88.8001 	 
H 	 -111.469 	 57.3502 	 -88.4484 	 
H 	 -110.803 	 57.8693 	 -89.8643 	 
C 	 -110.575 	 59.3394 	 -88.2487 	 
H 	 -109.677 	 59.8551 	 -88.5299 	 
H 	 -111.423 	 59.8192 	 -88.835 	 
C 	 -110.564 	 59.4932 	 -86.683 	 
H 	 -109.581 	 59.1279 	 -86.2493 	 
H 	 -110.733 	 60.5562 	 -86.4357 	 
H 	 -111.408 	 58.9795 	 -86.1658 	 
S 	 -105.427 	 54.5489 	 -89.7675 	 
C 	 -103.906 	 54.9903 	 -90.2153 	 
C 	 -103.624 	 56.2892 	 -90.0217 	 
C 	 -104.759 	 57.0544 	 -89.5684 	 
C 	 -105.82 	 56.2263 	 -89.314 	 
H 	 -102.621 	 56.6692 	 -90.3853 	 
C 	 -104.791 	 58.5282 	 -89.4584 	 
H 	 -105.796 	 58.8495 	 -89.5108 	 
H 	 -104.26 	 58.9035 	 -90.3342 	 
C 	 -104.125 	 59.0737 	 -88.1962 	 
H 	 -103.129 	 58.536 	 -88.1029 	 
H 	 -104.642 	 58.9233 	 -87.2378 	 
C 	 -103.819 	 60.5592 	 -88.1827 	 
H 	 -103.49 	 61.007 	 -87.1708 	 
H 	 -104.688 	 61.0576 	 -88.507 	 
H 	 -103.08 	 60.8162 	 -88.9755 	 
H 	 -110.095 	 55.8213 	 -86.9286 	 
H 	 -103.208 	 54.3251 	 -90.5972 	 
