34

S 	 -30.4448 	 -50.0883 	 -77.6069 	 
C 	 -28.8396 	 -50.5025 	 -77.2264 	 
C 	 -28.2211 	 -49.5441 	 -76.3853 	 
C 	 -29.1951 	 -48.7427 	 -75.7458 	 
C 	 -30.4702 	 -49.0028 	 -76.1891 	 
H 	 -28.8775 	 -47.9963 	 -74.9569 	 
C 	 -26.6858 	 -49.3909 	 -76.1598 	 
H 	 -26.191 	 -50.2859 	 -75.7308 	 
H 	 -26.4522 	 -48.6142 	 -75.4814 	 
C 	 -25.9662 	 -49.0977 	 -77.478 	 
H 	 -24.9281 	 -49.0552 	 -77.2403 	 
H 	 -25.8737 	 -50.0103 	 -78.0309 	 
C 	 -26.5433 	 -47.956 	 -78.3636 	 
H 	 -27.4918 	 -48.3364 	 -78.7789 	 
H 	 -26.805 	 -47.0325 	 -77.6863 	 
H 	 -25.8797 	 -47.6887 	 -79.1998 	 
S 	 -32.8283 	 -49.2898 	 -74.7352 	 
C 	 -33.6331 	 -47.807 	 -74.2531 	 
C 	 -33.1037 	 -46.6725 	 -74.8559 	 
C 	 -31.8812 	 -46.9438 	 -75.5808 	 
C 	 -31.6867 	 -48.3468 	 -75.7169 	 
H 	 -33.5426 	 -45.7048 	 -74.6311 	 
C 	 -31.1244 	 -45.8259 	 -76.244 	 
H 	 -30.3816 	 -46.326 	 -76.8716 	 
H 	 -30.6252 	 -45.1655 	 -75.4981 	 
C 	 -31.8644 	 -44.8689 	 -77.1544 	 
H 	 -32.748 	 -44.4445 	 -76.6026 	 
H 	 -32.2625 	 -45.5361 	 -77.8798 	 
C 	 -30.9914 	 -43.7829 	 -77.7832 	 
H 	 -31.5222 	 -43.0543 	 -78.369 	 
H 	 -30.2646 	 -44.267 	 -78.4269 	 
H 	 -30.5315 	 -43.1587 	 -76.9332 	 
H 	 -28.3088 	 -51.1982 	 -77.9205 	 
H 	 -34.3727 	 -47.814 	 -73.419 	 
