34

S 	 -48.0182 	 -43.8895 	 -77.1514 	 
C 	 -48.4177 	 -42.2215 	 -77.2767 	 
C 	 -47.4018 	 -41.3891 	 -76.776 	 
C 	 -46.2942 	 -42.1871 	 -76.276 	 
C 	 -46.4913 	 -43.5787 	 -76.4941 	 
H 	 -45.296 	 -41.8455 	 -75.9664 	 
C 	 -47.5339 	 -39.8171 	 -76.7397 	 
H 	 -47.1105 	 -39.3598 	 -75.8724 	 
H 	 -48.5773 	 -39.6595 	 -76.5756 	 
C 	 -47.0278 	 -39.1791 	 -77.9642 	 
H 	 -46.0714 	 -39.5674 	 -78.2682 	 
H 	 -47.6223 	 -39.3746 	 -78.8827 	 
C 	 -47.0092 	 -37.6719 	 -77.9312 	 
H 	 -46.2281 	 -37.2559 	 -77.262 	 
H 	 -46.8047 	 -37.316 	 -78.8891 	 
H 	 -47.9529 	 -37.3353 	 -77.4404 	 
S 	 -46.0541 	 -45.549 	 -74.6139 	 
C 	 -44.763 	 -46.6495 	 -74.8634 	 
C 	 -44.0244 	 -46.3361 	 -76.0004 	 
C 	 -44.4726 	 -45.1736 	 -76.6227 	 
C 	 -45.623 	 -44.6703 	 -76.0445 	 
H 	 -43.2742 	 -47.0284 	 -76.2237 	 
C 	 -43.9384 	 -44.7247 	 -77.9317 	 
H 	 -42.832 	 -44.7976 	 -77.8354 	 
H 	 -44.1359 	 -43.5791 	 -78.009 	 
C 	 -44.3886 	 -45.6349 	 -79.1058 	 
H 	 -45.464 	 -45.7248 	 -79.0572 	 
H 	 -44.1368 	 -46.7088 	 -78.9347 	 
C 	 -44.093 	 -45.1616 	 -80.4132 	 
H 	 -44.8637 	 -44.4718 	 -80.8879 	 
H 	 -44.1846 	 -45.9085 	 -81.1778 	 
H 	 -43.029 	 -44.897 	 -80.5238 	 
H 	 -49.311 	 -41.8653 	 -77.7689 	 
H 	 -44.6134 	 -47.5942 	 -74.361 	 
