34

S 	 -86.9706 	 4.45852 	 -115.157 	 
C 	 -86.1822 	 2.87212 	 -115.1 	 
C 	 -86.4605 	 2.08874 	 -116.193 	 
C 	 -87.3949 	 2.7523 	 -117.048 	 
C 	 -87.8689 	 3.99193 	 -116.618 	 
H 	 -87.7397 	 2.21122 	 -117.877 	 
C 	 -85.96 	 0.69648 	 -116.628 	 
H 	 -84.871 	 0.791742 	 -116.745 	 
H 	 -86.2901 	 0.531429 	 -117.615 	 
C 	 -86.4039 	 -0.360071 	 -115.619 	 
H 	 -86.1369 	 -1.31018 	 -115.984 	 
H 	 -85.7668 	 -0.329306 	 -114.77 	 
C 	 -87.9514 	 -0.411479 	 -115.322 	 
H 	 -88.3687 	 0.520161 	 -114.828 	 
H 	 -88.4816 	 -0.44327 	 -116.293 	 
H 	 -88.1756 	 -1.30162 	 -114.745 	 
S 	 -88.019 	 6.24135 	 -118.107 	 
C 	 -89.4943 	 6.70118 	 -118.967 	 
C 	 -90.4704 	 5.80046 	 -118.76 	 
C 	 -89.9755 	 4.65015 	 -118.026 	 
C 	 -88.7826 	 4.85749 	 -117.4 	 
H 	 -91.4203 	 6.0642 	 -119.255 	 
C 	 -90.7999 	 3.46078 	 -117.724 	 
H 	 -90.3335 	 2.51815 	 -117.631 	 
H 	 -91.4563 	 3.32053 	 -118.549 	 
C 	 -91.6941 	 3.75132 	 -116.523 	 
H 	 -92.3359 	 4.68281 	 -116.62 	 
H 	 -91.0119 	 3.90419 	 -115.717 	 
C 	 -92.7954 	 2.6663 	 -116.276 	 
H 	 -93.3485 	 2.71399 	 -115.342 	 
H 	 -92.3269 	 1.6414 	 -116.221 	 
H 	 -93.5088 	 2.57896 	 -117.159 	 
H 	 -85.4989 	 2.57971 	 -114.285 	 
H 	 -89.6173 	 7.54025 	 -119.622 	 
