34

S 	 -54.4087 	 5.5264 	 -19.5394 	 
C 	 -53.0971 	 4.54012 	 -18.7308 	 
C 	 -52.1107 	 5.36295 	 -18.1613 	 
C 	 -52.35 	 6.7737 	 -18.4697 	 
C 	 -53.5425 	 7.05019 	 -19.121 	 
H 	 -51.6186 	 7.62043 	 -18.2221 	 
C 	 -50.9018 	 4.86791 	 -17.3783 	 
H 	 -51.1392 	 3.84532 	 -16.9626 	 
H 	 -50.6034 	 5.55118 	 -16.6502 	 
C 	 -49.6743 	 4.56359 	 -18.2568 	 
H 	 -50.073 	 4.07196 	 -19.1569 	 
H 	 -49.2077 	 5.45883 	 -18.6311 	 
C 	 -48.5807 	 3.68403 	 -17.5459 	 
H 	 -48.4962 	 4.10184 	 -16.5219 	 
H 	 -48.8685 	 2.63627 	 -17.5084 	 
H 	 -47.6728 	 3.80584 	 -18.137 	 
S 	 -53.8563 	 8.33125 	 -21.5675 	 
C 	 -54.3532 	 9.99972 	 -21.6076 	 
C 	 -54.3935 	 10.5501 	 -20.3198 	 
C 	 -53.861 	 9.66307 	 -19.3681 	 
C 	 -53.8226 	 8.33092 	 -19.8086 	 
H 	 -54.6584 	 11.5747 	 -20.1613 	 
C 	 -53.6445 	 10.1092 	 -17.8971 	 
H 	 -52.9108 	 9.42451 	 -17.4015 	 
H 	 -54.6451 	 9.79218 	 -17.453 	 
C 	 -53.4037 	 11.517 	 -17.4861 	 
H 	 -54.3277 	 12.0422 	 -17.711 	 
H 	 -52.6331 	 11.9156 	 -18.1696 	 
C 	 -53.1038 	 11.6676 	 -16.0227 	 
H 	 -53.6783 	 10.9144 	 -15.4569 	 
H 	 -53.3821 	 12.6228 	 -15.6927 	 
H 	 -52.1125 	 11.6107 	 -15.765 	 
H 	 -53.0946 	 3.49706 	 -18.6019 	 
H 	 -54.8806 	 10.4948 	 -22.4298 	 
