34

S 	 -128.016 	 68.4089 	 -55.3462 	 
C 	 -128.064 	 69.1258 	 -57.0095 	 
C 	 -127.076 	 70.0999 	 -57.1566 	 
C 	 -126.285 	 70.1785 	 -56.0157 	 
C 	 -126.637 	 69.3437 	 -54.9528 	 
H 	 -125.456 	 70.8896 	 -55.8706 	 
C 	 -126.926 	 70.8483 	 -58.4206 	 
H 	 -127.855 	 70.7746 	 -59.0446 	 
H 	 -126.114 	 70.3382 	 -59.0046 	 
C 	 -126.559 	 72.3029 	 -58.1751 	 
H 	 -125.6 	 72.2199 	 -57.6823 	 
H 	 -126.377 	 72.6362 	 -59.1812 	 
C 	 -127.513 	 73.109 	 -57.2947 	 
H 	 -126.993 	 74.0924 	 -57.1529 	 
H 	 -128.423 	 73.3835 	 -57.7793 	 
H 	 -127.689 	 72.7227 	 -56.2873 	 
S 	 -126.931 	 69.0449 	 -52.1776 	 
C 	 -125.53 	 68.8282 	 -51.2065 	 
C 	 -124.376 	 68.8623 	 -52.0204 	 
C 	 -124.575 	 68.9747 	 -53.3634 	 
C 	 -125.936 	 69.1016 	 -53.6983 	 
H 	 -123.499 	 68.8133 	 -51.4833 	 
C 	 -123.432 	 68.9825 	 -54.3774 	 
H 	 -123.98 	 68.7052 	 -55.266 	 
H 	 -122.8 	 68.1711 	 -54.1378 	 
C 	 -122.674 	 70.2512 	 -54.3928 	 
H 	 -122.045 	 70.3552 	 -53.5451 	 
H 	 -123.398 	 71.1409 	 -54.4645 	 
C 	 -121.77 	 70.36 	 -55.6565 	 
H 	 -121.126 	 69.4972 	 -55.6727 	 
H 	 -121.05 	 71.1844 	 -55.6862 	 
H 	 -122.421 	 70.4504 	 -56.5148 	 
H 	 -128.772 	 68.8035 	 -57.7966 	 
H 	 -125.432 	 68.7398 	 -50.0972 	 
