34

S 	 -0.931921 	 -24.4883 	 -113.894 	 
C 	 -0.930508 	 -26.0894 	 -114.702 	 
C 	 -0.649201 	 -27.0536 	 -113.715 	 
C 	 -0.572633 	 -26.4746 	 -112.421 	 
C 	 -0.591314 	 -25.088 	 -112.329 	 
H 	 -0.395665 	 -27.0932 	 -111.506 	 
C 	 -0.601642 	 -28.5855 	 -113.876 	 
H 	 0.328003 	 -28.9526 	 -113.37 	 
H 	 -0.662646 	 -28.8845 	 -114.911 	 
C 	 -1.70439 	 -29.3435 	 -113.14 	 
H 	 -1.53329 	 -29.1061 	 -112.081 	 
H 	 -2.63789 	 -28.8163 	 -113.474 	 
C 	 -1.74247 	 -30.8461 	 -113.433 	 
H 	 -2.61523 	 -31.3375 	 -113.155 	 
H 	 -1.60527 	 -30.9732 	 -114.505 	 
H 	 -0.913629 	 -31.4085 	 -113.064 	 
S 	 -1.73035 	 -22.9391 	 -110.903 	 
C 	 -1.03289 	 -22.564 	 -109.362 	 
C 	 -0.13203 	 -23.4802 	 -108.835 	 
C 	 0.0214173 	 -24.5451 	 -109.838 	 
C 	 -0.70047 	 -24.3604 	 -111.021 	 
H 	 0.298668 	 -23.4365 	 -107.8 	 
C 	 0.948109 	 -25.646 	 -109.658 	 
H 	 1.85962 	 -25.2115 	 -109.18 	 
H 	 1.22837 	 -26.0454 	 -110.637 	 
C 	 0.28061 	 -26.6505 	 -108.758 	 
H 	 -0.616978 	 -27.0223 	 -109.118 	 
H 	 0.026606 	 -26.2087 	 -107.825 	 
C 	 1.24063 	 -27.8272 	 -108.379 	 
H 	 1.13175 	 -28.6691 	 -109.131 	 
H 	 1.04665 	 -28.2198 	 -107.355 	 
H 	 2.30195 	 -27.6116 	 -108.384 	 
H 	 -1.26362 	 -26.4606 	 -115.682 	 
H 	 -1.43494 	 -21.7332 	 -108.805 	 
