34

S 	 -48.9331 	 16.681 	 21.4447 	 
C 	 -50.0417 	 15.6089 	 22.3894 	 
C 	 -50.8255 	 14.841 	 21.6008 	 
C 	 -50.5242 	 14.9902 	 20.247 	 
C 	 -49.5452 	 15.8951 	 19.9974 	 
H 	 -50.9518 	 14.5058 	 19.4142 	 
C 	 -51.8255 	 13.8153 	 22.1001 	 
H 	 -52.1111 	 13.2778 	 21.2331 	 
H 	 -52.7037 	 14.3242 	 22.5166 	 
C 	 -51.1916 	 12.6949 	 22.9904 	 
H 	 -50.8106 	 13.1169 	 23.923 	 
H 	 -51.8712 	 11.872 	 23.2457 	 
C 	 -50.0425 	 11.9245 	 22.3073 	 
H 	 -49.1485 	 12.5499 	 22.1121 	 
H 	 -49.6413 	 11.0627 	 22.939 	 
H 	 -50.2913 	 11.4525 	 21.2961 	 
S 	 -48.7123 	 15.0012 	 17.4896 	 
C 	 -47.5416 	 15.933 	 16.586 	 
C 	 -47.5215 	 17.23 	 17.0727 	 
C 	 -48.4463 	 17.4501 	 18.1501 	 
C 	 -48.9981 	 16.2538 	 18.658 	 
H 	 -47.0027 	 18.0113 	 16.5502 	 
C 	 -48.6387 	 18.8508 	 18.7579 	 
H 	 -47.6622 	 19.3655 	 18.8099 	 
H 	 -48.9456 	 18.8943 	 19.8397 	 
C 	 -49.5057 	 19.7892 	 17.9389 	 
H 	 -50.5651 	 19.3321 	 17.9565 	 
H 	 -49.1591 	 19.7733 	 16.9268 	 
C 	 -49.5424 	 21.3246 	 18.2938 	 
H 	 -49.8561 	 21.8657 	 17.4079 	 
H 	 -48.5776 	 21.6811 	 18.5245 	 
H 	 -50.0797 	 21.5612 	 19.1765 	 
H 	 -50.0869 	 15.561 	 23.4578 	 
H 	 -47.0127 	 15.5177 	 15.7067 	 
