34

S 	 -57.5329 	 17.2637 	 -100.678 	 
C 	 -57.1045 	 18.9472 	 -100.747 	 
C 	 -57.3886 	 19.6336 	 -99.6506 	 
C 	 -57.9561 	 18.8251 	 -98.6665 	 
C 	 -58.1678 	 17.5039 	 -99.0562 	 
H 	 -58.3929 	 19.2788 	 -97.787 	 
C 	 -57.4221 	 21.1796 	 -99.521 	 
H 	 -56.8429 	 21.3528 	 -98.6098 	 
H 	 -58.4774 	 21.5189 	 -99.3432 	 
C 	 -56.6366 	 22.0953 	 -100.531 	 
H 	 -55.5554 	 21.9083 	 -100.438 	 
H 	 -56.9963 	 21.9272 	 -101.538 	 
C 	 -56.891 	 23.5562 	 -100.23 	 
H 	 -56.2642 	 24.1829 	 -100.934 	 
H 	 -57.9363 	 23.7643 	 -100.317 	 
H 	 -56.6416 	 23.7119 	 -99.1427 	 
S 	 -59.7465 	 15.3356 	 -99.4578 	 
C 	 -60.5351 	 14.5749 	 -98.1561 	 
C 	 -60.2859 	 15.1609 	 -96.9522 	 
C 	 -59.3931 	 16.2481 	 -97.0674 	 
C 	 -59.0127 	 16.4965 	 -98.4034 	 
H 	 -60.5885 	 14.7009 	 -95.9909 	 
C 	 -58.7573 	 16.9254 	 -95.8487 	 
H 	 -57.9115 	 17.5266 	 -96.2149 	 
H 	 -58.3643 	 16.2108 	 -95.1973 	 
C 	 -59.6976 	 17.864 	 -95.1582 	 
H 	 -60.4356 	 17.2838 	 -94.6685 	 
H 	 -60.2149 	 18.5061 	 -95.9073 	 
C 	 -59.1241 	 18.9523 	 -94.2216 	 
H 	 -58.4534 	 19.6403 	 -94.7673 	 
H 	 -58.5484 	 18.5466 	 -93.3241 	 
H 	 -59.9985 	 19.5884 	 -93.8267 	 
H 	 -56.7519 	 19.4399 	 -101.701 	 
H 	 -61.0819 	 13.6932 	 -98.2493 	 
