34

S 	 -90.0099 	 -48.855 	 -75.923 	 
C 	 -88.587 	 -48.2319 	 -75.1124 	 
C 	 -87.5186 	 -49.0188 	 -75.3293 	 
C 	 -87.7805 	 -50.0367 	 -76.2721 	 
C 	 -89.0504 	 -50.0194 	 -76.8136 	 
H 	 -87.1175 	 -50.7413 	 -76.6308 	 
C 	 -86.1926 	 -48.9591 	 -74.5523 	 
H 	 -85.5314 	 -49.7754 	 -74.8044 	 
H 	 -86.5376 	 -48.9114 	 -73.5465 	 
C 	 -85.3155 	 -47.7017 	 -74.6604 	 
H 	 -84.3438 	 -47.9787 	 -74.2232 	 
H 	 -85.1387 	 -47.3478 	 -75.6517 	 
C 	 -85.8346 	 -46.5105 	 -73.7805 	 
H 	 -85.972 	 -46.9412 	 -72.8288 	 
H 	 -84.9534 	 -45.7555 	 -73.5969 	 
H 	 -86.6593 	 -46.0314 	 -74.1721 	 
S 	 -91.2842 	 -51.639 	 -77.3757 	 
C 	 -91.2839 	 -52.5516 	 -78.8626 	 
C 	 -90.0245 	 -52.4353 	 -79.5276 	 
C 	 -89.1204 	 -51.5375 	 -78.9361 	 
C 	 -89.6416 	 -50.9536 	 -77.7708 	 
H 	 -89.7403 	 -53.0278 	 -80.4319 	 
C 	 -87.7832 	 -51.3738 	 -79.6454 	 
H 	 -87.5188 	 -52.2816 	 -80.1676 	 
H 	 -86.9724 	 -51.2728 	 -78.9759 	 
C 	 -87.6623 	 -50.2776 	 -80.6798 	 
H 	 -88.459 	 -50.4869 	 -81.3906 	 
H 	 -86.7094 	 -50.2861 	 -81.113 	 
C 	 -87.9924 	 -48.8183 	 -80.2101 	 
H 	 -87.6546 	 -48.0982 	 -80.9337 	 
H 	 -87.461 	 -48.5021 	 -79.2945 	 
H 	 -89.0577 	 -48.7111 	 -80.1972 	 
H 	 -88.7361 	 -47.4866 	 -74.3216 	 
H 	 -92.1359 	 -53.259 	 -79.1669 	 
