34

S 	 -52.2262 	 4.45963 	 -23.5954 	 
C 	 -51.7173 	 4.96862 	 -22.0488 	 
C 	 -52.5068 	 4.53335 	 -21.0155 	 
C 	 -53.5006 	 3.71211 	 -21.5031 	 
C 	 -53.4514 	 3.45398 	 -22.8545 	 
H 	 -54.2825 	 3.20306 	 -20.8714 	 
C 	 -52.3095 	 4.84366 	 -19.49 	 
H 	 -51.3358 	 5.40328 	 -19.384 	 
H 	 -52.1991 	 3.82934 	 -19.0751 	 
C 	 -53.4988 	 5.62028 	 -18.8244 	 
H 	 -53.7923 	 6.49239 	 -19.438 	 
H 	 -54.414 	 4.99495 	 -18.7882 	 
C 	 -53.1933 	 5.84081 	 -17.3783 	 
H 	 -53.1755 	 4.9353 	 -16.7575 	 
H 	 -52.2567 	 6.38986 	 -17.1933 	 
H 	 -54.1104 	 6.33048 	 -16.8482 	 
S 	 -54.6514 	 3.275 	 -25.3677 	 
C 	 -55.6587 	 1.94013 	 -25.6831 	 
C 	 -55.7843 	 1.01166 	 -24.6629 	 
C 	 -55.0102 	 1.41961 	 -23.5546 	 
C 	 -54.4219 	 2.70218 	 -23.7055 	 
H 	 -56.3484 	 0.14971 	 -24.7875 	 
C 	 -54.9315 	 0.575943 	 -22.2873 	 
H 	 -55.6588 	 -0.214065 	 -22.3231 	 
H 	 -55.2162 	 1.38647 	 -21.548 	 
C 	 -53.5142 	 0.0808521 	 -21.9936 	 
H 	 -52.8372 	 0.962406 	 -21.9205 	 
H 	 -53.1763 	 -0.430892 	 -22.8323 	 
C 	 -53.4016 	 -0.630511 	 -20.6101 	 
H 	 -53.1545 	 -0.00347747 	 -19.684 	 
H 	 -52.6748 	 -1.38048 	 -20.5814 	 
H 	 -54.2575 	 -1.23609 	 -20.4674 	 
H 	 -51.0062 	 5.82651 	 -21.8364 	 
H 	 -56.2477 	 1.94931 	 -26.6197 	 
