34

S 	 -89.1495 	 -33.8691 	 -60.289 	 
C 	 -88.4512 	 -35.264 	 -59.5419 	 
C 	 -88.4049 	 -35.1514 	 -58.1726 	 
C 	 -88.8304 	 -33.8607 	 -57.7146 	 
C 	 -89.1533 	 -33.0004 	 -58.7884 	 
H 	 -88.8408 	 -33.4608 	 -56.7475 	 
C 	 -87.7728 	 -36.2153 	 -57.2344 	 
H 	 -86.8188 	 -35.7881 	 -56.9311 	 
H 	 -87.5031 	 -37.1267 	 -57.8008 	 
C 	 -88.5858 	 -36.659 	 -55.9266 	 
H 	 -88.7747 	 -35.8329 	 -55.2564 	 
H 	 -89.6136 	 -36.9546 	 -56.2443 	 
C 	 -87.9338 	 -37.7646 	 -55.0656 	 
H 	 -88.7034 	 -38.1841 	 -54.3451 	 
H 	 -87.6622 	 -38.6487 	 -55.5846 	 
H 	 -87.0518 	 -37.4379 	 -54.5182 	 
S 	 -88.9607 	 -30.3351 	 -59.6737 	 
C 	 -89.7671 	 -29.2313 	 -58.5606 	 
C 	 -90.5536 	 -29.8374 	 -57.6033 	 
C 	 -90.5421 	 -31.2374 	 -57.6995 	 
C 	 -89.5947 	 -31.6158 	 -58.6677 	 
H 	 -91.0928 	 -29.2806 	 -56.8816 	 
C 	 -91.2675 	 -31.9873 	 -56.5642 	 
H 	 -91.3263 	 -33.0378 	 -56.7998 	 
H 	 -92.297 	 -31.6447 	 -56.603 	 
C 	 -90.6411 	 -31.7186 	 -55.1413 	 
H 	 -90.4137 	 -30.6436 	 -55.012 	 
H 	 -89.6373 	 -32.0374 	 -55.1435 	 
C 	 -91.4939 	 -32.2193 	 -53.9387 	 
H 	 -90.9995 	 -32.0679 	 -52.967 	 
H 	 -91.7665 	 -33.2345 	 -54.1885 	 
H 	 -92.3993 	 -31.6867 	 -53.8197 	 
H 	 -88.2545 	 -36.1764 	 -60.0407 	 
H 	 -89.5931 	 -28.1642 	 -58.6618 	 
