34

S 	 -127.449 	 60.4365 	 -54.1645 	 
C 	 -128.737 	 61.5604 	 -54.634 	 
C 	 -128.27 	 62.5193 	 -55.5079 	 
C 	 -126.834 	 62.5085 	 -55.5914 	 
C 	 -126.238 	 61.5261 	 -54.8295 	 
H 	 -126.234 	 63.2455 	 -56.1922 	 
C 	 -129.103 	 63.5319 	 -56.334 	 
H 	 -128.753 	 64.4503 	 -55.8289 	 
H 	 -130.145 	 63.4912 	 -56.1811 	 
C 	 -128.639 	 63.8383 	 -57.7964 	 
H 	 -127.625 	 63.9756 	 -57.8309 	 
H 	 -128.789 	 63.0218 	 -58.4977 	 
C 	 -129.221 	 65.2145 	 -58.2769 	 
H 	 -128.459 	 65.8169 	 -58.7948 	 
H 	 -129.898 	 65.1105 	 -59.1682 	 
H 	 -129.811 	 65.658 	 -57.481 	 
S 	 -124.385 	 61.2425 	 -52.8066 	 
C 	 -122.682 	 60.9575 	 -53.1906 	 
C 	 -122.547 	 60.9483 	 -54.5752 	 
C 	 -123.76 	 61.1655 	 -55.3378 	 
C 	 -124.836 	 61.3673 	 -54.5004 	 
H 	 -121.565 	 60.8693 	 -54.9279 	 
C 	 -123.784 	 61.2169 	 -56.8018 	 
H 	 -124.859 	 61.0813 	 -57.0388 	 
H 	 -123.166 	 60.3321 	 -57.048 	 
C 	 -123.225 	 62.4789 	 -57.4094 	 
H 	 -122.327 	 62.8085 	 -56.8812 	 
H 	 -123.87 	 63.297 	 -57.1107 	 
C 	 -122.871 	 62.4308 	 -58.9168 	 
H 	 -123.806 	 62.3988 	 -59.5388 	 
H 	 -122.222 	 61.6113 	 -59.2322 	 
H 	 -122.285 	 63.2635 	 -59.252 	 
H 	 -129.796 	 61.5025 	 -54.2967 	 
H 	 -121.897 	 60.89 	 -52.5251 	 
