34

S 	 29.5183 	 -29.8668 	 -128.497 	 
C 	 28.0167 	 -29.0253 	 -128.141 	 
C 	 27.0678 	 -29.15 	 -129.142 	 
C 	 27.5519 	 -30.0187 	 -130.208 	 
C 	 28.8437 	 -30.5206 	 -129.96 	 
H 	 27.0333 	 -30.2776 	 -131.109 	 
C 	 25.705 	 -28.4993 	 -129.222 	 
H 	 25.1626 	 -28.6629 	 -130.196 	 
H 	 25.7373 	 -27.4262 	 -129.066 	 
C 	 24.6551 	 -28.8944 	 -128.095 	 
H 	 24.6917 	 -29.9635 	 -127.873 	 
H 	 24.8975 	 -28.4408 	 -127.089 	 
C 	 23.2359 	 -28.5626 	 -128.509 	 
H 	 23.0595 	 -27.5884 	 -128.798 	 
H 	 22.8929 	 -29.1794 	 -129.293 	 
H 	 22.5583 	 -28.6449 	 -127.703 	 
S 	 30.1003 	 -31.1203 	 -132.38 	 
C 	 31.2771 	 -32.4586 	 -132.366 	 
C 	 31.0942 	 -33.2563 	 -131.317 	 
C 	 30.1794 	 -32.6525 	 -130.355 	 
C 	 29.5887 	 -31.4844 	 -130.759 	 
H 	 31.502 	 -34.2674 	 -131.301 	 
C 	 30.1695 	 -33.3751 	 -128.99 	 
H 	 29.7443 	 -32.6545 	 -128.329 	 
H 	 31.2489 	 -33.6493 	 -128.856 	 
C 	 29.3335 	 -34.5827 	 -128.979 	 
H 	 29.8159 	 -35.4533 	 -129.406 	 
H 	 28.4841 	 -34.5646 	 -129.758 	 
C 	 28.6876 	 -35.005 	 -127.527 	 
H 	 29.2695 	 -34.4954 	 -126.763 	 
H 	 28.7263 	 -36.1359 	 -127.542 	 
H 	 27.6493 	 -34.7541 	 -127.496 	 
H 	 27.8841 	 -28.6037 	 -127.195 	 
H 	 31.8492 	 -32.7473 	 -133.187 	 
