34

S 	 -38.3839 	 -48.8134 	 -73.1713 	 
C 	 -39.0204 	 -47.2575 	 -73.7032 	 
C 	 -38.0992 	 -46.2787 	 -73.4894 	 
C 	 -36.9074 	 -46.7934 	 -72.934 	 
C 	 -36.8632 	 -48.1374 	 -72.6663 	 
H 	 -36.0453 	 -46.2936 	 -72.6708 	 
C 	 -38.2259 	 -44.7958 	 -73.8915 	 
H 	 -39.2687 	 -44.5949 	 -74.3174 	 
H 	 -37.4882 	 -44.6117 	 -74.6363 	 
C 	 -37.8152 	 -43.7626 	 -72.805 	 
H 	 -36.8495 	 -43.9589 	 -72.4453 	 
H 	 -37.8612 	 -42.7687 	 -73.1746 	 
C 	 -38.7493 	 -43.9314 	 -71.6578 	 
H 	 -39.7712 	 -43.8056 	 -72.0159 	 
H 	 -38.617 	 -44.9511 	 -71.2187 	 
H 	 -38.5708 	 -43.2671 	 -70.8199 	 
S 	 -36.288 	 -50.1422 	 -70.956 	 
C 	 -34.6643 	 -50.4016 	 -70.4102 	 
C 	 -33.7931 	 -49.5905 	 -71.1115 	 
C 	 -34.3892 	 -48.8273 	 -72.1642 	 
C 	 -35.745 	 -48.8786 	 -72.0785 	 
H 	 -32.7362 	 -49.5656 	 -70.8079 	 
C 	 -33.5449 	 -47.8755 	 -72.9653 	 
H 	 -33.6634 	 -46.7987 	 -72.7906 	 
H 	 -34.0216 	 -47.9766 	 -73.9919 	 
C 	 -32.0885 	 -48.2458 	 -73.244 	 
H 	 -31.5779 	 -47.899 	 -72.3839 	 
H 	 -31.8641 	 -47.661 	 -74.0784 	 
C 	 -31.8781 	 -49.7186 	 -73.6344 	 
H 	 -31.6012 	 -50.2976 	 -72.7737 	 
H 	 -31.155 	 -49.8368 	 -74.406 	 
H 	 -32.8067 	 -50.1476 	 -74.0155 	 
H 	 -39.8983 	 -47.0186 	 -74.385 	 
H 	 -34.3874 	 -51.0136 	 -69.6215 	 
