34

S 	 -143.558 	 6.40516 	 3.72953 	 
C 	 -142.866 	 5.04715 	 4.60362 	 
C 	 -142.253 	 5.47498 	 5.77385 	 
C 	 -142.272 	 6.89608 	 5.8891 	 
C 	 -142.883 	 7.58982 	 4.87583 	 
H 	 -141.881 	 7.55743 	 6.63385 	 
C 	 -141.515 	 4.56936 	 6.72815 	 
H 	 -140.501 	 4.91745 	 6.50315 	 
H 	 -141.654 	 3.56123 	 6.42579 	 
C 	 -141.773 	 4.61046 	 8.20365 	 
H 	 -141.026 	 3.91656 	 8.62964 	 
H 	 -141.697 	 5.65139 	 8.55013 	 
C 	 -143.141 	 3.95534 	 8.63599 	 
H 	 -143.868 	 4.70514 	 8.55361 	 
H 	 -143.506 	 3.14351 	 8.08372 	 
H 	 -143.163 	 3.6875 	 9.75577 	 
S 	 -141.47 	 9.90153 	 5.15626 	 
C 	 -142.115 	 11.3831 	 4.45728 	 
C 	 -143.238 	 11.1405 	 3.77583 	 
C 	 -143.681 	 9.79571 	 3.90019 	 
C 	 -142.89 	 9.02881 	 4.68555 	 
H 	 -143.739 	 11.8417 	 3.18088 	 
C 	 -144.975 	 9.31973 	 3.15673 	 
H 	 -145.265 	 8.38152 	 3.6768 	 
H 	 -144.706 	 9.14169 	 2.13081 	 
C 	 -146.203 	 10.2575 	 3.20185 	 
H 	 -145.815 	 11.1151 	 2.68425 	 
H 	 -146.523 	 10.5261 	 4.21492 	 
C 	 -147.338 	 9.71677 	 2.28724 	 
H 	 -147.022 	 9.56535 	 1.27962 	 
H 	 -148.168 	 10.4262 	 2.3191 	 
H 	 -147.692 	 8.78331 	 2.75163 	 
H 	 -142.847 	 4.01477 	 4.22949 	 
H 	 -141.611 	 12.3626 	 4.5199 	 
