34

S 	 -107.442 	 52.1048 	 -88.3313 	 
C 	 -108.683 	 51.2611 	 -87.3064 	 
C 	 -109.481 	 52.1581 	 -86.6391 	 
C 	 -108.924 	 53.501 	 -86.7751 	 
C 	 -107.886 	 53.6364 	 -87.6553 	 
H 	 -109.26 	 54.3315 	 -86.1481 	 
C 	 -110.546 	 51.7979 	 -85.5592 	 
H 	 -110.712 	 52.682 	 -84.9217 	 
H 	 -110.204 	 51.0427 	 -84.7474 	 
C 	 -111.879 	 51.2266 	 -86.1496 	 
H 	 -111.56 	 50.5575 	 -86.9482 	 
H 	 -112.385 	 50.5119 	 -85.4983 	 
C 	 -112.862 	 52.3084 	 -86.6947 	 
H 	 -112.414 	 52.6463 	 -87.5987 	 
H 	 -113.817 	 51.8927 	 -86.8863 	 
H 	 -112.985 	 53.1905 	 -86.0648 	 
S 	 -105.34 	 54.7306 	 -87.7158 	 
C 	 -105.165 	 56.4282 	 -88.3246 	 
C 	 -106.383 	 57.0926 	 -88.3932 	 
C 	 -107.471 	 56.1388 	 -88.2613 	 
C 	 -107.137 	 54.8398 	 -88.0106 	 
H 	 -106.502 	 58.2028 	 -88.5387 	 
C 	 -108.924 	 56.5564 	 -88.3509 	 
H 	 -109.453 	 55.593 	 -88.3064 	 
H 	 -109.041 	 56.9661 	 -89.3507 	 
C 	 -109.535 	 57.4465 	 -87.2199 	 
H 	 -109.046 	 58.4058 	 -87.1869 	 
H 	 -109.457 	 57.0414 	 -86.2126 	 
C 	 -110.989 	 57.8917 	 -87.5904 	 
H 	 -111.355 	 58.6285 	 -86.8536 	 
H 	 -111.576 	 57.0023 	 -87.5302 	 
H 	 -111.081 	 58.3151 	 -88.5279 	 
H 	 -108.936 	 50.2109 	 -87.4038 	 
H 	 -104.196 	 56.9091 	 -88.1915 	 
