34

S 	 -58.6111 	 4.01187 	 -23.5384 	 
C 	 -60.1011 	 4.83488 	 -23.9028 	 
C 	 -61.2676 	 4.28436 	 -23.4013 	 
C 	 -60.9854 	 3.02964 	 -22.7791 	 
C 	 -59.5858 	 2.78312 	 -22.7108 	 
H 	 -61.6805 	 2.36947 	 -22.2802 	 
C 	 -62.7222 	 4.80738 	 -23.4935 	 
H 	 -62.9218 	 5.10503 	 -24.5066 	 
H 	 -62.7132 	 5.68752 	 -22.8281 	 
C 	 -63.7857 	 3.88673 	 -22.9791 	 
H 	 -63.8097 	 2.98892 	 -23.5462 	 
H 	 -63.5458 	 3.46235 	 -21.9845 	 
C 	 -65.1403 	 4.58034 	 -22.9074 	 
H 	 -65.0513 	 5.45047 	 -22.1955 	 
H 	 -65.461 	 4.83965 	 -23.9232 	 
H 	 -65.8766 	 3.82276 	 -22.5927 	 
S 	 -59.2042 	 0.0463982 	 -22.5373 	 
C 	 -58.5675 	 -0.558418 	 -21.0305 	 
C 	 -58.098 	 0.424881 	 -20.1934 	 
C 	 -58.3202 	 1.74126 	 -20.733 	 
C 	 -58.9826 	 1.70417 	 -21.959 	 
H 	 -57.6469 	 0.211321 	 -19.2106 	 
C 	 -58.1849 	 3.00043 	 -19.829 	 
H 	 -58.3784 	 3.88243 	 -20.4272 	 
H 	 -57.1147 	 3.08115 	 -19.6109 	 
C 	 -58.9451 	 2.96733 	 -18.4892 	 
H 	 -58.8219 	 1.95377 	 -18.0096 	 
H 	 -60.0361 	 3.07663 	 -18.6248 	 
C 	 -58.5381 	 4.03662 	 -17.4726 	 
H 	 -57.5718 	 3.87634 	 -17.0389 	 
H 	 -59.102 	 4.01749 	 -16.5475 	 
H 	 -58.7342 	 5.07517 	 -17.8403 	 
H 	 -60.1999 	 5.73311 	 -24.548 	 
H 	 -58.2733 	 -1.59145 	 -20.8976 	 
