34

S 	 -99.0405 	 17.4275 	 -119.575 	 
C 	 -98.8679 	 19.0802 	 -119.141 	 
C 	 -98.6067 	 19.8726 	 -120.247 	 
C 	 -98.3529 	 19.0636 	 -121.403 	 
C 	 -98.6044 	 17.7402 	 -121.238 	 
H 	 -98.1166 	 19.3855 	 -122.468 	 
C 	 -98.6133 	 21.3497 	 -120.231 	 
H 	 -97.7179 	 21.6353 	 -120.776 	 
H 	 -98.5061 	 21.6907 	 -119.183 	 
C 	 -99.7962 	 21.8912 	 -121.064 	 
H 	 -99.5654 	 21.7168 	 -122.101 	 
H 	 -100.747 	 21.4291 	 -120.781 	 
C 	 -100.016 	 23.4368 	 -120.759 	 
H 	 -100.778 	 23.8542 	 -121.416 	 
H 	 -100.229 	 23.7605 	 -119.687 	 
H 	 -99.0922 	 23.9972 	 -120.925 	 
S 	 -97.0645 	 16.0309 	 -122.714 	 
C 	 -97.93 	 15.164 	 -124.007 	 
C 	 -99.2865 	 15.2012 	 -123.806 	 
C 	 -99.6836 	 16.0777 	 -122.793 	 
C 	 -98.6357 	 16.6903 	 -122.213 	 
H 	 -99.8537 	 14.7185 	 -124.51 	 
C 	 -101.123 	 16.3276 	 -122.551 	 
H 	 -101.256 	 16.6757 	 -121.523 	 
H 	 -101.802 	 15.4365 	 -122.613 	 
C 	 -101.688 	 17.4229 	 -123.515 	 
H 	 -101.842 	 17.0905 	 -124.529 	 
H 	 -100.912 	 18.1247 	 -123.527 	 
C 	 -102.973 	 18.1288 	 -122.939 	 
H 	 -103.905 	 17.4893 	 -123.004 	 
H 	 -103.225 	 18.9871 	 -123.597 	 
H 	 -102.861 	 18.5334 	 -121.934 	 
H 	 -99.0205 	 19.3366 	 -118.109 	 
H 	 -97.2992 	 14.6157 	 -124.718 	 
