34

S 	 -96.5135 	 46.5467 	 -94.2062 	 
C 	 -96.6386 	 44.8576 	 -93.542 	 
C 	 -97.2782 	 43.9789 	 -94.3911 	 
C 	 -97.726 	 44.6486 	 -95.6232 	 
C 	 -97.4292 	 46.0017 	 -95.6172 	 
H 	 -98.2873 	 44.2796 	 -96.3976 	 
C 	 -97.4969 	 42.5086 	 -94.1038 	 
H 	 -98.4973 	 42.3127 	 -94.345 	 
H 	 -97.4449 	 42.408 	 -93.0051 	 
C 	 -96.5226 	 41.5017 	 -94.7763 	 
H 	 -95.5248 	 41.5137 	 -94.3638 	 
H 	 -96.9415 	 40.4468 	 -94.5973 	 
C 	 -96.4773 	 41.4709 	 -96.3054 	 
H 	 -95.9977 	 42.3648 	 -96.6418 	 
H 	 -96.004 	 40.6057 	 -96.7551 	 
H 	 -97.4877 	 41.4129 	 -96.5844 	 
S 	 -96.5923 	 48.0325 	 -97.2941 	 
C 	 -97.7336 	 48.6748 	 -98.5186 	 
C 	 -98.8459 	 47.9218 	 -98.5438 	 
C 	 -98.9461 	 46.9543 	 -97.5075 	 
C 	 -97.7797 	 46.8385 	 -96.7328 	 
H 	 -99.6148 	 48.2793 	 -99.1727 	 
C 	 -100.218 	 46.2476 	 -97.2462 	 
H 	 -100.087 	 45.1866 	 -97.3275 	 
H 	 -101.061 	 46.4493 	 -97.9029 	 
C 	 -100.88 	 46.6947 	 -95.9688 	 
H 	 -101.068 	 47.8284 	 -95.9511 	 
H 	 -100.149 	 46.5589 	 -95.1494 	 
C 	 -102.129 	 45.9075 	 -95.5431 	 
H 	 -101.855 	 44.8742 	 -95.3617 	 
H 	 -102.928 	 46.0177 	 -96.2473 	 
H 	 -102.517 	 46.3132 	 -94.6491 	 
H 	 -96.2786 	 44.658 	 -92.5479 	 
H 	 -97.3782 	 49.4192 	 -99.2079 	 
