34

S 	 -85.6873 	 -29.4491 	 -59.7122 	 
C 	 -86.1828 	 -27.9536 	 -60.588 	 
C 	 -87.1939 	 -27.2815 	 -59.9585 	 
C 	 -87.5567 	 -27.9763 	 -58.7558 	 
C 	 -86.9043 	 -29.1956 	 -58.5003 	 
H 	 -88.2795 	 -27.682 	 -58.0621 	 
C 	 -87.7897 	 -25.9326 	 -60.3097 	 
H 	 -88.8861 	 -26.0084 	 -60.4703 	 
H 	 -87.454 	 -25.5591 	 -61.2945 	 
C 	 -87.4006 	 -24.7009 	 -59.5382 	 
H 	 -87.5762 	 -23.6999 	 -60.0259 	 
H 	 -88.0922 	 -24.5967 	 -58.6492 	 
C 	 -85.9207 	 -24.6547 	 -58.8867 	 
H 	 -85.9014 	 -25.2226 	 -57.8946 	 
H 	 -85.2097 	 -25.2587 	 -59.4499 	 
H 	 -85.4375 	 -23.703 	 -58.853 	 
S 	 -88.1462 	 -31.7252 	 -58.1046 	 
C 	 -88.33 	 -32.2917 	 -56.5122 	 
C 	 -88.0447 	 -31.3381 	 -55.5694 	 
C 	 -87.2991 	 -30.2166 	 -56.1433 	 
C 	 -87.3557 	 -30.222 	 -57.5139 	 
H 	 -88.1349 	 -31.5517 	 -54.5089 	 
C 	 -86.6215 	 -29.119 	 -55.2713 	 
H 	 -86.4136 	 -28.2768 	 -55.9391 	 
H 	 -85.6336 	 -29.4682 	 -55.0433 	 
C 	 -87.295 	 -28.7412 	 -53.9434 	 
H 	 -86.6767 	 -28.0071 	 -53.4376 	 
H 	 -87.4058 	 -29.5015 	 -53.2529 	 
C 	 -88.6894 	 -28.2372 	 -54.2672 	 
H 	 -89.1731 	 -27.8864 	 -53.3436 	 
H 	 -89.1859 	 -29.1073 	 -54.6152 	 
H 	 -88.7374 	 -27.5321 	 -55.0457 	 
H 	 -85.7846 	 -27.6533 	 -61.5256 	 
H 	 -88.854 	 -33.2398 	 -56.3666 	 
