34

S 	 -130.981 	 74.8599 	 -50.855 	 
C 	 -131.489 	 74.6895 	 -52.5369 	 
C 	 -130.608 	 73.9015 	 -53.2793 	 
C 	 -129.482 	 73.5177 	 -52.4919 	 
C 	 -129.655 	 73.7973 	 -51.1084 	 
H 	 -128.667 	 72.9416 	 -52.8707 	 
C 	 -130.698 	 73.6281 	 -54.8148 	 
H 	 -129.752 	 73.171 	 -55.2063 	 
H 	 -130.871 	 74.5889 	 -55.2543 	 
C 	 -132.069 	 73.0158 	 -55.2776 	 
H 	 -132.878 	 73.6961 	 -55.0378 	 
H 	 -132.107 	 73.0346 	 -56.3785 	 
C 	 -132.313 	 71.5958 	 -54.8562 	 
H 	 -132.662 	 71.5546 	 -53.8249 	 
H 	 -133.222 	 71.2296 	 -55.389 	 
H 	 -131.489 	 70.8467 	 -54.9227 	 
S 	 -128.415 	 74.9889 	 -48.9783 	 
C 	 -127.267 	 74.1182 	 -47.9642 	 
C 	 -127.185 	 72.8631 	 -48.3861 	 
C 	 -127.872 	 72.6101 	 -49.6481 	 
C 	 -128.664 	 73.6639 	 -50.0537 	 
H 	 -126.713 	 72.1177 	 -47.758 	 
C 	 -127.738 	 71.286 	 -50.273 	 
H 	 -126.75 	 70.9975 	 -50.0179 	 
H 	 -127.761 	 71.321 	 -51.3191 	 
C 	 -128.589 	 70.1686 	 -49.7091 	 
H 	 -129.665 	 70.3478 	 -49.9442 	 
H 	 -128.37 	 70.1005 	 -48.6156 	 
C 	 -128.227 	 68.7754 	 -50.214 	 
H 	 -128.743 	 68.1057 	 -49.5319 	 
H 	 -127.127 	 68.5025 	 -50.1633 	 
H 	 -128.661 	 68.6756 	 -51.2123 	 
H 	 -132.309 	 75.0696 	 -53.0203 	 
H 	 -126.754 	 74.5763 	 -47.1151 	 
