34

S 	 -100.181 	 7.84817 	 3.38581 	 
C 	 -100.293 	 6.41701 	 2.31871 	 
C 	 -99.8584 	 5.3385 	 3.06396 	 
C 	 -99.6925 	 5.5921 	 4.46579 	 
C 	 -99.8531 	 6.89809 	 4.82723 	 
H 	 -99.3787 	 4.78059 	 5.19834 	 
C 	 -99.872 	 3.90593 	 2.53238 	 
H 	 -100.865 	 3.62957 	 2.11116 	 
H 	 -99.7436 	 3.08023 	 3.28093 	 
C 	 -98.7874 	 3.70169 	 1.46113 	 
H 	 -98.9762 	 4.50256 	 0.710436 	 
H 	 -97.7579 	 3.808 	 1.73131 	 
C 	 -98.8508 	 2.31025 	 0.773486 	 
H 	 -98.0381 	 2.24298 	 0.103076 	 
H 	 -98.8083 	 1.45628 	 1.48689 	 
H 	 -99.7104 	 2.25482 	 -0.000155682 	 
S 	 -101.235 	 8.53066 	 6.50875 	 
C 	 -100.686 	 8.6678 	 8.13311 	 
C 	 -99.637 	 7.80245 	 8.46445 	 
C 	 -99.0932 	 7.2038 	 7.26908 	 
C 	 -99.8898 	 7.4207 	 6.15483 	 
H 	 -99.1776 	 7.8081 	 9.46686 	 
C 	 -97.66 	 6.54503 	 7.2872 	 
H 	 -97.6359 	 5.76943 	 6.55214 	 
H 	 -97.5948 	 5.80866 	 8.16718 	 
C 	 -96.4748 	 7.48161 	 7.06398 	 
H 	 -96.3439 	 8.00579 	 8.01906 	 
H 	 -96.6825 	 8.27306 	 6.27195 	 
C 	 -95.27 	 6.62466 	 6.5911 	 
H 	 -94.526 	 7.24397 	 6.03997 	 
H 	 -95.5004 	 5.97451 	 5.75797 	 
H 	 -94.798 	 6.03045 	 7.32318 	 
H 	 -100.502 	 6.47954 	 1.29019 	 
H 	 -101.196 	 9.27452 	 8.92363 	 
