34

S 	 -63.2548 	 12.4904 	 -109.21 	 
C 	 -63.2953 	 11.5523 	 -107.723 	 
C 	 -63.1128 	 12.3473 	 -106.583 	 
C 	 -62.835 	 13.733 	 -106.927 	 
C 	 -62.9977 	 14.0092 	 -108.275 	 
H 	 -62.6874 	 14.5138 	 -106.244 	 
C 	 -63.0843 	 11.7259 	 -105.233 	 
H 	 -62.2324 	 11.0179 	 -105.191 	 
H 	 -63.8966 	 11.0837 	 -105.156 	 
C 	 -63.0268 	 12.7417 	 -104.066 	 
H 	 -62.066 	 13.3396 	 -104.175 	 
H 	 -63.8386 	 13.4131 	 -104.058 	 
C 	 -63.1219 	 12.1822 	 -102.655 	 
H 	 -62.8614 	 12.9081 	 -101.91 	 
H 	 -64.1105 	 11.8596 	 -102.367 	 
H 	 -62.3475 	 11.3915 	 -102.576 	 
S 	 -63.6793 	 16.7354 	 -108.394 	 
C 	 -63.0301 	 17.5675 	 -109.77 	 
C 	 -62.1805 	 16.8174 	 -110.499 	 
C 	 -61.8886 	 15.5817 	 -109.913 	 
C 	 -62.7772 	 15.2776 	 -108.911 	 
H 	 -61.6904 	 17.2489 	 -111.375 	 
C 	 -60.7574 	 14.76 	 -110.414 	 
H 	 -60.7306 	 15.0419 	 -111.449 	 
H 	 -61.1551 	 13.7531 	 -110.409 	 
C 	 -59.4067 	 14.8806 	 -109.738 	 
H 	 -59.1785 	 15.9045 	 -109.691 	 
H 	 -58.6314 	 14.4442 	 -110.372 	 
C 	 -59.4375 	 14.2885 	 -108.307 	 
H 	 -59.9728 	 14.9614 	 -107.662 	 
H 	 -58.4626 	 14.2436 	 -107.845 	 
H 	 -59.9144 	 13.2525 	 -108.217 	 
H 	 -63.4309 	 10.4877 	 -107.67 	 
H 	 -63.1673 	 18.6331 	 -110.075 	 
