34

S 	 -49.7033 	 13.8912 	 23.6114 	 
C 	 -49.5132 	 12.537 	 22.5276 	 
C 	 -50.6406 	 11.6751 	 22.5487 	 
C 	 -51.6099 	 12.1338 	 23.5104 	 
C 	 -51.2556 	 13.2613 	 24.2079 	 
H 	 -52.5591 	 11.6203 	 23.719 	 
C 	 -50.8284 	 10.4048 	 21.6943 	 
H 	 -50.0218 	 10.2288 	 21.0933 	 
H 	 -51.712 	 10.6107 	 21.0956 	 
C 	 -51.0246 	 9.06615 	 22.4472 	 
H 	 -50.0483 	 8.63676 	 22.5973 	 
H 	 -51.4516 	 9.2172 	 23.4097 	 
C 	 -51.8655 	 8.16328 	 21.6688 	 
H 	 -51.4628 	 7.98258 	 20.6776 	 
H 	 -51.9417 	 7.19611 	 22.1829 	 
H 	 -52.8878 	 8.39954 	 21.6171 	 
S 	 -52.2937 	 15.5616 	 25.3175 	 
C 	 -53.1135 	 15.4598 	 26.845 	 
C 	 -53.1139 	 14.1791 	 27.3647 	 
C 	 -52.4742 	 13.2516 	 26.5031 	 
C 	 -52.0028 	 13.8262 	 25.3255 	 
H 	 -53.4696 	 14.0642 	 28.4028 	 
C 	 -52.3533 	 11.8251 	 26.871 	 
H 	 -52.4134 	 11.2068 	 26.0161 	 
H 	 -53.2169 	 11.6908 	 27.5737 	 
C 	 -51.1177 	 11.3618 	 27.6679 	 
H 	 -51.3021 	 11.6605 	 28.6641 	 
H 	 -50.2015 	 11.662 	 27.1684 	 
C 	 -50.9421 	 9.78312 	 27.5682 	 
H 	 -50.0368 	 9.44085 	 28.101 	 
H 	 -50.9393 	 9.33093 	 26.63 	 
H 	 -51.7419 	 9.29005 	 28.1815 	 
H 	 -48.7441 	 12.4653 	 21.7927 	 
H 	 -53.4109 	 16.3217 	 27.4626 	 
