34

S 	 -115.218 	 28.8195 	 -18.3416 	 
C 	 -114.99 	 28.4178 	 -20.0145 	 
C 	 -115.922 	 29.0705 	 -20.839 	 
C 	 -116.685 	 30.0052 	 -20.1009 	 
C 	 -116.387 	 30.0453 	 -18.7332 	 
H 	 -117.345 	 30.7611 	 -20.3621 	 
C 	 -116.25 	 28.6707 	 -22.2707 	 
H 	 -115.426 	 28.2334 	 -22.8677 	 
H 	 -116.817 	 29.4788 	 -22.7985 	 
C 	 -117.176 	 27.4831 	 -22.2618 	 
H 	 -118.213 	 27.681 	 -21.8906 	 
H 	 -117.409 	 27.2113 	 -23.3273 	 
C 	 -116.764 	 26.2098 	 -21.5603 	 
H 	 -117.677 	 25.5914 	 -21.5034 	 
H 	 -115.952 	 25.6711 	 -22.1062 	 
H 	 -116.341 	 26.3382 	 -20.5636 	 
S 	 -118.647 	 30.471 	 -17.1979 	 
C 	 -118.72 	 31.9121 	 -16.1466 	 
C 	 -117.542 	 32.6221 	 -16.2157 	 
C 	 -116.63 	 32.0929 	 -17.1562 	 
C 	 -117.061 	 30.8937 	 -17.7553 	 
H 	 -117.378 	 33.5343 	 -15.5688 	 
C 	 -115.367 	 32.8788 	 -17.4885 	 
H 	 -115.487 	 33.8986 	 -17.2136 	 
H 	 -115.313 	 32.7999 	 -18.5215 	 
C 	 -114.143 	 32.4787 	 -16.6432 	 
H 	 -113.281 	 32.9542 	 -17.0884 	 
H 	 -114.031 	 31.4144 	 -16.8727 	 
C 	 -114.185 	 32.6913 	 -15.1665 	 
H 	 -114.974 	 32.2434 	 -14.6066 	 
H 	 -114.283 	 33.8367 	 -14.9891 	 
H 	 -113.226 	 32.4927 	 -14.7592 	 
H 	 -114.368 	 27.7112 	 -20.502 	 
H 	 -119.642 	 32.3802 	 -15.855 	 
