34

S 	 -132.43 	 13.9637 	 -15.4233 	 
C 	 -133.563 	 13.0188 	 -14.4402 	 
C 	 -134.695 	 12.6646 	 -15.0962 	 
C 	 -134.634 	 13.0839 	 -16.4418 	 
C 	 -133.496 	 13.7866 	 -16.8661 	 
H 	 -135.467 	 12.9639 	 -17.1903 	 
C 	 -135.878 	 11.881 	 -14.4651 	 
H 	 -135.401 	 10.9151 	 -14.4941 	 
H 	 -136.649 	 11.8211 	 -15.2164 	 
C 	 -136.331 	 12.3989 	 -13.0761 	 
H 	 -135.599 	 12.1634 	 -12.3526 	 
H 	 -136.637 	 13.4516 	 -13.0413 	 
C 	 -137.554 	 11.5189 	 -12.5892 	 
H 	 -137.944 	 11.9217 	 -11.6813 	 
H 	 -138.392 	 11.4148 	 -13.2521 	 
H 	 -137.285 	 10.4854 	 -12.4154 	 
S 	 -133.67 	 16.3055 	 -18.1242 	 
C 	 -133.378 	 16.4239 	 -19.8248 	 
C 	 -133.024 	 15.1888 	 -20.3864 	 
C 	 -132.994 	 14.1332 	 -19.3596 	 
C 	 -133.301 	 14.5406 	 -18.0919 	 
H 	 -132.797 	 15.0292 	 -21.4784 	 
C 	 -132.519 	 12.7535 	 -19.5989 	 
H 	 -133.258 	 12.1509 	 -20.126 	 
H 	 -132.574 	 12.2544 	 -18.6282 	 
C 	 -131.018 	 12.5897 	 -19.9078 	 
H 	 -130.545 	 13.1626 	 -19.1429 	 
H 	 -130.778 	 13.1044 	 -20.7958 	 
C 	 -130.549 	 11.1501 	 -19.9511 	 
H 	 -129.614 	 10.9196 	 -20.468 	 
H 	 -131.349 	 10.6384 	 -20.5364 	 
H 	 -130.438 	 10.785 	 -18.9187 	 
H 	 -133.383 	 12.7039 	 -13.4489 	 
H 	 -133.466 	 17.377 	 -20.355 	 
