34

S 	 -123.268 	 63.5507 	 -52.2765 	 
C 	 -122.584 	 64.6512 	 -53.4742 	 
C 	 -121.678 	 65.5752 	 -52.9495 	 
C 	 -121.452 	 65.2653 	 -51.5458 	 
C 	 -122.297 	 64.3035 	 -51.071 	 
H 	 -120.607 	 65.7419 	 -50.9416 	 
C 	 -120.848 	 66.529 	 -53.6746 	 
H 	 -120.528 	 65.9638 	 -54.5721 	 
H 	 -119.85 	 66.7935 	 -53.1084 	 
C 	 -121.516 	 67.796 	 -54.2256 	 
H 	 -121.182 	 67.9803 	 -55.1996 	 
H 	 -122.571 	 67.532 	 -54.3127 	 
C 	 -121.406 	 69.052 	 -53.3563 	 
H 	 -122.189 	 69.7487 	 -53.6656 	 
H 	 -121.609 	 68.7241 	 -52.3309 	 
H 	 -120.353 	 69.4838 	 -53.3757 	 
S 	 -123.467 	 65.1933 	 -48.7285 	 
C 	 -123.347 	 64.193 	 -47.3117 	 
C 	 -122.495 	 63.1115 	 -47.4927 	 
C 	 -122.108 	 63.0183 	 -48.854 	 
C 	 -122.547 	 64.0332 	 -49.6498 	 
H 	 -122.268 	 62.5419 	 -46.5908 	 
C 	 -121.206 	 61.8846 	 -49.2898 	 
H 	 -120.698 	 61.5899 	 -48.317 	 
H 	 -120.425 	 62.2541 	 -49.9894 	 
C 	 -121.841 	 60.576 	 -49.8424 	 
H 	 -121.245 	 59.6588 	 -49.7648 	 
H 	 -121.999 	 60.6798 	 -50.9205 	 
C 	 -123.205 	 60.1014 	 -49.1847 	 
H 	 -123.72 	 59.3762 	 -49.793 	 
H 	 -123.894 	 60.9541 	 -48.8926 	 
H 	 -123.064 	 59.6044 	 -48.2571 	 
H 	 -122.83 	 64.6579 	 -54.5114 	 
H 	 -123.786 	 64.4973 	 -46.3307 	 
