34

S 	 -84.1092 	 -9.79662 	 -60.8678 	 
C 	 -84.6426 	 -8.11214 	 -60.8748 	 
C 	 -84.0971 	 -7.47475 	 -59.8015 	 
C 	 -83.3397 	 -8.31528 	 -58.9783 	 
C 	 -83.3928 	 -9.6686 	 -59.2874 	 
H 	 -82.9917 	 -8.02579 	 -57.9952 	 
C 	 -84.4175 	 -6.03929 	 -59.3624 	 
H 	 -83.8258 	 -5.74867 	 -58.4484 	 
H 	 -85.4163 	 -6.17394 	 -58.9451 	 
C 	 -84.4421 	 -4.99048 	 -60.5173 	 
H 	 -83.4403 	 -4.70606 	 -60.8174 	 
H 	 -84.7956 	 -5.46157 	 -61.4199 	 
C 	 -85.2304 	 -3.74076 	 -60.1851 	 
H 	 -86.1919 	 -4.0073 	 -59.743 	 
H 	 -84.7561 	 -3.29712 	 -59.3235 	 
H 	 -85.2991 	 -3.15144 	 -61.0703 	 
S 	 -82.1608 	 -12.1465 	 -59.5324 	 
C 	 -81.674 	 -13.0355 	 -58.1215 	 
C 	 -82.1977 	 -12.3785 	 -57.0099 	 
C 	 -82.9087 	 -11.1462 	 -57.2415 	 
C 	 -82.8775 	 -10.812 	 -58.6009 	 
H 	 -82.192 	 -12.931 	 -56.1121 	 
C 	 -83.6994 	 -10.332 	 -56.1935 	 
H 	 -83.7724 	 -9.33678 	 -56.415 	 
H 	 -83.1411 	 -10.3787 	 -55.2395 	 
C 	 -85.0589 	 -10.926 	 -55.8859 	 
H 	 -85.4698 	 -10.4054 	 -54.9938 	 
H 	 -85.0307 	 -11.9772 	 -55.5898 	 
C 	 -86.1418 	 -10.768 	 -57.0379 	 
H 	 -86.2356 	 -9.72271 	 -57.428 	 
H 	 -87.1347 	 -11.1477 	 -56.7693 	 
H 	 -85.8587 	 -11.45 	 -57.8649 	 
H 	 -85.4402 	 -7.78418 	 -61.5288 	 
H 	 -81.2942 	 -14.0317 	 -58.146 	 
