34

S 	 -46.4202 	 15.6721 	 -99.6164 	 
C 	 -47.8581 	 16.6476 	 -99.7268 	 
C 	 -47.8609 	 17.3154 	 -100.957 	 
C 	 -46.7812 	 16.8628 	 -101.857 	 
C 	 -46.0189 	 15.852 	 -101.292 	 
H 	 -46.7698 	 17.3529 	 -102.84 	 
C 	 -48.9575 	 18.2975 	 -101.343 	 
H 	 -49.9323 	 17.9414 	 -100.932 	 
H 	 -49.0208 	 18.208 	 -102.42 	 
C 	 -48.7295 	 19.8082 	 -100.978 	 
H 	 -47.8873 	 20.2956 	 -101.472 	 
H 	 -49.5664 	 20.3585 	 -101.447 	 
C 	 -48.8512 	 20.1323 	 -99.4452 	 
H 	 -49.6627 	 19.5629 	 -99.0648 	 
H 	 -47.9326 	 19.9081 	 -98.9846 	 
H 	 -49.0879 	 21.1759 	 -99.2899 	 
S 	 -43.5577 	 14.9111 	 -100.676 	 
C 	 -42.4613 	 14.2457 	 -101.824 	 
C 	 -43.1362 	 14.3602 	 -103.065 	 
C 	 -44.4863 	 14.8634 	 -103.072 	 
C 	 -44.8097 	 15.2236 	 -101.803 	 
H 	 -42.5386 	 13.9932 	 -103.875 	 
C 	 -45.2796 	 15.0708 	 -104.322 	 
H 	 -46.1385 	 15.6593 	 -104.073 	 
H 	 -45.5955 	 14.0987 	 -104.776 	 
C 	 -44.568 	 15.9534 	 -105.471 	 
H 	 -45.3221 	 16.0389 	 -106.252 	 
H 	 -43.6474 	 15.4925 	 -105.785 	 
C 	 -44.1676 	 17.3952 	 -104.966 	 
H 	 -43.6584 	 18.0607 	 -105.693 	 
H 	 -43.5812 	 17.4549 	 -104.008 	 
H 	 -45.1064 	 17.9568 	 -104.71 	 
H 	 -48.5928 	 16.8077 	 -98.8836 	 
H 	 -41.3719 	 14.0491 	 -101.736 	 
