34

S 	 -117.123 	 59.9968 	 -32.2564 	 
C 	 -116.695 	 59.7629 	 -30.5997 	 
C 	 -117.15 	 60.7847 	 -29.8245 	 
C 	 -117.963 	 61.7239 	 -30.484 	 
C 	 -118.001 	 61.4453 	 -31.8376 	 
H 	 -118.326 	 62.6182 	 -30.1206 	 
C 	 -116.956 	 60.8875 	 -28.3349 	 
H 	 -117.812 	 60.357 	 -27.9663 	 
H 	 -116.97 	 61.9407 	 -27.9999 	 
C 	 -115.625 	 60.2441 	 -27.8402 	 
H 	 -115.652 	 59.2144 	 -28.1469 	 
H 	 -114.802 	 60.6443 	 -28.4524 	 
C 	 -115.365 	 60.2367 	 -26.33 	 
H 	 -114.549 	 59.5315 	 -26.008 	 
H 	 -114.991 	 61.2478 	 -25.973 	 
H 	 -116.33 	 59.9857 	 -25.8902 	 
S 	 -117.747 	 63.5345 	 -33.6803 	 
C 	 -119.122 	 63.9408 	 -34.6261 	 
C 	 -120.211 	 63.0761 	 -34.4078 	 
C 	 -119.928 	 62.1701 	 -33.3297 	 
C 	 -118.63 	 62.2305 	 -32.8968 	 
H 	 -121.221 	 63.1895 	 -34.9352 	 
C 	 -121.019 	 61.3019 	 -32.6876 	 
H 	 -121.896 	 61.5623 	 -33.2803 	 
H 	 -121.156 	 61.6409 	 -31.6557 	 
C 	 -120.737 	 59.7435 	 -32.7609 	 
H 	 -119.84 	 59.4929 	 -32.2511 	 
H 	 -120.524 	 59.3274 	 -33.7953 	 
C 	 -121.83 	 58.9848 	 -32.0447 	 
H 	 -122.826 	 59.1849 	 -32.4596 	 
H 	 -121.773 	 59.1156 	 -30.9864 	 
H 	 -121.796 	 57.9335 	 -32.2368 	 
H 	 -116.294 	 58.8388 	 -30.2665 	 
H 	 -119.165 	 64.5638 	 -35.4486 	 
