34

S 	 -34.0384 	 -3.43421 	 5.29948 	 
C 	 -34.5269 	 -3.16574 	 6.96028 	 
C 	 -35.563 	 -4.02355 	 7.33298 	 
C 	 -36.0792 	 -4.76945 	 6.21932 	 
C 	 -35.408 	 -4.50955 	 5.0447 	 
H 	 -36.9007 	 -5.38545 	 6.22657 	 
C 	 -36.0713 	 -4.2983 	 8.78879 	 
H 	 -35.2861 	 -4.06431 	 9.55334 	 
H 	 -36.2318 	 -5.41685 	 8.83443 	 
C 	 -37.3797 	 -3.688 	 9.21768 	 
H 	 -38.1129 	 -3.93464 	 8.46448 	 
H 	 -37.6759 	 -4.178 	 10.0877 	 
C 	 -37.3064 	 -2.20737 	 9.549 	 
H 	 -36.5196 	 -1.99499 	 10.2024 	 
H 	 -36.9165 	 -1.67342 	 8.66601 	 
H 	 -38.2182 	 -1.82609 	 9.92019 	 
S 	 -34.4736 	 -6.33613 	 3.26375 	 
C 	 -35.4201 	 -6.86061 	 1.91712 	 
C 	 -36.6101 	 -6.13081 	 1.84919 	 
C 	 -36.8124 	 -5.30984 	 3.00752 	 
C 	 -35.6845 	 -5.18178 	 3.78325 	 
H 	 -37.2277 	 -6.28872 	 1.00786 	 
C 	 -38.0932 	 -4.52887 	 3.14789 	 
H 	 -37.8066 	 -3.63074 	 2.57757 	 
H 	 -38.1559 	 -4.04981 	 4.13918 	 
C 	 -39.4809 	 -5.04552 	 2.73647 	 
H 	 -39.7755 	 -5.699 	 3.58101 	 
H 	 -39.3962 	 -5.69416 	 1.90635 	 
C 	 -40.5243 	 -3.99801 	 2.4538 	 
H 	 -40.489 	 -3.21295 	 3.2181 	 
H 	 -41.5107 	 -4.48332 	 2.45712 	 
H 	 -40.3221 	 -3.51637 	 1.44023 	 
H 	 -34.1259 	 -2.39126 	 7.67181 	 
H 	 -35.0594 	 -7.58354 	 1.15751 	 
