34

S 	 -100.496 	 1.63816 	 -122.089 	 
C 	 -101.671 	 1.50912 	 -120.716 	 
C 	 -101.777 	 0.253165 	 -120.296 	 
C 	 -100.985 	 -0.704024 	 -121.032 	 
C 	 -100.242 	 -0.116364 	 -122.019 	 
H 	 -100.95 	 -1.74239 	 -120.88 	 
C 	 -102.658 	 -0.241854 	 -119.127 	 
H 	 -103.116 	 -1.12047 	 -119.5 	 
H 	 -103.489 	 0.440789 	 -118.969 	 
C 	 -102.006 	 -0.382246 	 -117.691 	 
H 	 -102.692 	 -1.0178 	 -117.138 	 
H 	 -101.074 	 -0.869098 	 -117.729 	 
C 	 -101.858 	 0.940077 	 -117.023 	 
H 	 -101.044 	 1.57744 	 -117.445 	 
H 	 -102.842 	 1.45619 	 -117.091 	 
H 	 -101.594 	 0.869977 	 -115.971 	 
S 	 -99.8004 	 -0.421557 	 -124.768 	 
C 	 -98.6524 	 -1.5986 	 -125.308 	 
C 	 -98.0729 	 -2.362 	 -124.258 	 
C 	 -98.5594 	 -1.91693 	 -122.998 	 
C 	 -99.5285 	 -0.839455 	 -123.082 	 
H 	 -97.2766 	 -3.12401 	 -124.528 	 
C 	 -98.0208 	 -2.4551 	 -121.639 	 
H 	 -97.4131 	 -3.3054 	 -121.871 	 
H 	 -98.8109 	 -2.88708 	 -121.029 	 
C 	 -97.3118 	 -1.41235 	 -120.831 	 
H 	 -96.8613 	 -1.73842 	 -119.897 	 
H 	 -98.0921 	 -0.743199 	 -120.5 	 
C 	 -96.1577 	 -0.64224 	 -121.582 	 
H 	 -96.5383 	 -0.108809 	 -122.438 	 
H 	 -95.304 	 -1.23663 	 -121.936 	 
H 	 -95.6969 	 0.130536 	 -120.942 	 
H 	 -102.213 	 2.35078 	 -120.308 	 
H 	 -98.3163 	 -1.7075 	 -126.363 	 
