34

S 	 -31.5893 	 14.0853 	 -2.05442 	 
C 	 -31.5755 	 12.4193 	 -2.47333 	 
C 	 -30.5975 	 11.7534 	 -1.79258 	 
C 	 -29.851 	 12.6437 	 -0.917003 	 
C 	 -30.3197 	 13.9095 	 -0.909655 	 
H 	 -29.0193 	 12.3361 	 -0.315382 	 
C 	 -30.4907 	 10.2377 	 -1.7768 	 
H 	 -31.4239 	 10.0022 	 -1.13894 	 
H 	 -29.5607 	 9.96523 	 -1.17872 	 
C 	 -30.394 	 9.45908 	 -3.06705 	 
H 	 -31.2486 	 9.5889 	 -3.7947 	 
H 	 -29.577 	 9.9481 	 -3.62031 	 
C 	 -29.9727 	 8.02999 	 -2.81183 	 
H 	 -29.8638 	 7.40239 	 -3.68905 	 
H 	 -29.0171 	 7.90554 	 -2.329 	 
H 	 -30.6917 	 7.47454 	 -2.2216 	 
S 	 -28.4114 	 15.8436 	 -0.52023 	 
C 	 -28.7198 	 17.0118 	 0.762956 	 
C 	 -29.7775 	 16.6931 	 1.53146 	 
C 	 -30.3958 	 15.5108 	 1.08415 	 
C 	 -29.8894 	 15.0616 	 -0.132592 	 
H 	 -29.9895 	 17.3423 	 2.39636 	 
C 	 -31.7706 	 15.0914 	 1.71625 	 
H 	 -31.9987 	 14.1381 	 1.39439 	 
H 	 -32.5852 	 15.7517 	 1.40563 	 
C 	 -31.6272 	 15.1574 	 3.24541 	 
H 	 -31.4612 	 16.1347 	 3.7023 	 
H 	 -30.7105 	 14.6936 	 3.58972 	 
C 	 -32.9031 	 14.5345 	 4.09596 	 
H 	 -33.1912 	 13.5753 	 3.65263 	 
H 	 -33.7786 	 15.1651 	 3.99572 	 
H 	 -32.4392 	 14.4949 	 5.09617 	 
H 	 -32.2302 	 11.9152 	 -3.19024 	 
H 	 -28.1633 	 17.8815 	 0.847648 	 
