34

S 	 -107.44 	 2.86783 	 -105.592 	 
C 	 -107.255 	 4.09937 	 -106.877 	 
C 	 -105.969 	 4.28736 	 -107.157 	 
C 	 -105.024 	 3.38639 	 -106.432 	 
C 	 -105.728 	 2.51577 	 -105.605 	 
H 	 -103.983 	 3.46015 	 -106.442 	 
C 	 -105.359 	 5.44736 	 -107.939 	 
H 	 -106.292 	 5.9691 	 -108.322 	 
H 	 -104.836 	 5.0609 	 -108.844 	 
C 	 -104.492 	 6.37729 	 -107.152 	 
H 	 -105.041 	 6.59198 	 -106.218 	 
H 	 -103.632 	 5.82786 	 -106.856 	 
C 	 -104.026 	 7.58883 	 -107.892 	 
H 	 -104.943 	 8.16286 	 -108.119 	 
H 	 -103.473 	 8.3422 	 -107.286 	 
H 	 -103.476 	 7.28358 	 -108.761 	 
S 	 -105.599 	 -0.132272 	 -105.631 	 
C 	 -104.411 	 -0.885777 	 -104.637 	 
C 	 -103.843 	 -0.0612954 	 -103.678 	 
C 	 -104.249 	 1.29609 	 -103.92 	 
C 	 -105.218 	 1.38625 	 -104.917 	 
H 	 -103.094 	 -0.483925 	 -103.054 	 
C 	 -103.607 	 2.39954 	 -103.145 	 
H 	 -103.45 	 3.21837 	 -103.863 	 
H 	 -102.599 	 2.08376 	 -102.891 	 
C 	 -104.191 	 2.86283 	 -101.809 	 
H 	 -103.592 	 3.53631 	 -101.248 	 
H 	 -104.211 	 1.9817 	 -101.252 	 
C 	 -105.597 	 3.42737 	 -101.993 	 
H 	 -105.996 	 3.73033 	 -101.021 	 
H 	 -106.279 	 2.83121 	 -102.593 	 
H 	 -105.573 	 4.43052 	 -102.425 	 
H 	 -108.097 	 4.64321 	 -107.221 	 
H 	 -104.146 	 -1.92484 	 -104.584 	 
