34

S 	 -38.6202 	 -44.684 	 -75.3904 	 
C 	 -39.4753 	 -43.1987 	 -75.7672 	 
C 	 -38.5981 	 -42.2684 	 -76.2767 	 
C 	 -37.3333 	 -42.7834 	 -76.272 	 
C 	 -37.102 	 -44.0078 	 -75.6966 	 
H 	 -36.4518 	 -42.4145 	 -76.6116 	 
C 	 -38.9862 	 -40.9954 	 -77.0027 	 
H 	 -38.0448 	 -40.4113 	 -77.0128 	 
H 	 -39.6707 	 -40.3786 	 -76.3796 	 
C 	 -39.491 	 -41.046 	 -78.4557 	 
H 	 -40.3643 	 -41.6822 	 -78.5542 	 
H 	 -39.8374 	 -40.0517 	 -78.6274 	 
C 	 -38.51 	 -41.4509 	 -79.4454 	 
H 	 -38.1494 	 -42.4627 	 -79.4593 	 
H 	 -38.9625 	 -41.2349 	 -80.4208 	 
H 	 -37.6167 	 -40.8616 	 -79.3965 	 
S 	 -35.655 	 -46.1935 	 -76.704 	 
C 	 -34.0914 	 -46.606 	 -75.8872 	 
C 	 -33.7448 	 -45.5754 	 -75.0163 	 
C 	 -34.7316 	 -44.5569 	 -74.866 	 
C 	 -35.846 	 -44.7557 	 -75.6668 	 
H 	 -32.7737 	 -45.5961 	 -74.5634 	 
C 	 -34.5798 	 -43.4429 	 -73.8198 	 
H 	 -35.5619 	 -43.17 	 -73.4639 	 
H 	 -34.1589 	 -42.574 	 -74.3491 	 
C 	 -33.6314 	 -43.6724 	 -72.6182 	 
H 	 -32.5574 	 -43.8027 	 -72.9302 	 
H 	 -33.8485 	 -44.6523 	 -72.079 	 
C 	 -33.7372 	 -42.4912 	 -71.5435 	 
H 	 -34.7722 	 -42.3219 	 -71.1015 	 
H 	 -33.2484 	 -41.5656 	 -71.8655 	 
H 	 -33.1233 	 -42.8524 	 -70.74 	 
H 	 -40.5267 	 -43.0337 	 -75.7998 	 
H 	 -33.2669 	 -47.236 	 -76.1554 	 
