34

S 	 50.6733 	 -19.4891 	 -109.672 	 
C 	 50.2148 	 -20.1303 	 -111.206 	 
C 	 49.1261 	 -21.0214 	 -111.099 	 
C 	 48.7842 	 -21.2501 	 -109.742 	 
C 	 49.5577 	 -20.5193 	 -108.853 	 
H 	 47.9729 	 -21.8679 	 -109.325 	 
C 	 48.6025 	 -21.7955 	 -112.288 	 
H 	 49.1217 	 -22.6942 	 -112.375 	 
H 	 48.8034 	 -21.195 	 -113.19 	 
C 	 47.0767 	 -22.0725 	 -112.289 	 
H 	 46.9971 	 -22.6511 	 -111.41 	 
H 	 46.5228 	 -21.1554 	 -112.234 	 
C 	 46.5695 	 -22.7569 	 -113.572 	 
H 	 47.0238 	 -22.2294 	 -114.402 	 
H 	 46.8107 	 -23.8267 	 -113.547 	 
H 	 45.4361 	 -22.7268 	 -113.628 	 
S 	 50.2636 	 -22.3463 	 -106.922 	 
C 	 50.5159 	 -21.8741 	 -105.262 	 
C 	 50.2413 	 -20.5102 	 -105.107 	 
C 	 49.7931 	 -19.8551 	 -106.349 	 
C 	 49.6648 	 -20.7529 	 -107.403 	 
H 	 50.3356 	 -20.1734 	 -104.084 	 
C 	 49.2943 	 -18.4867 	 -106.391 	 
H 	 48.8171 	 -18.2723 	 -105.452 	 
H 	 48.4929 	 -18.3249 	 -107.194 	 
C 	 50.3745 	 -17.4818 	 -106.519 	 
H 	 51.0643 	 -17.7895 	 -107.282 	 
H 	 50.9322 	 -17.5537 	 -105.556 	 
C 	 49.8708 	 -16.0456 	 -106.738 	 
H 	 50.6334 	 -15.2911 	 -106.586 	 
H 	 49.2288 	 -15.6787 	 -105.964 	 
H 	 49.4228 	 -16.061 	 -107.719 	 
H 	 50.7561 	 -20.0553 	 -112.112 	 
H 	 50.8159 	 -22.5628 	 -104.472 	 
