34

S 	 -130.126 	 25.3454 	 -17.5099 	 
C 	 -128.691 	 24.3176 	 -17.8527 	 
C 	 -127.64 	 24.708 	 -17.0708 	 
C 	 -127.94 	 25.9241 	 -16.4048 	 
C 	 -129.189 	 26.4341 	 -16.6076 	 
H 	 -127.262 	 26.416 	 -15.7687 	 
C 	 -126.273 	 24.0359 	 -16.989 	 
H 	 -125.486 	 24.8074 	 -16.8151 	 
H 	 -126.064 	 23.7618 	 -18.0671 	 
C 	 -126.117 	 22.9176 	 -16.0062 	 
H 	 -125.128 	 22.4143 	 -15.9372 	 
H 	 -126.396 	 23.3013 	 -14.9912 	 
C 	 -127.02 	 21.7737 	 -16.2997 	 
H 	 -126.766 	 21.3185 	 -17.2475 	 
H 	 -126.893 	 21.0206 	 -15.5039 	 
H 	 -128.108 	 21.9814 	 -16.2542 	 
S 	 -130.243 	 27.8585 	 -14.5654 	 
C 	 -130.728 	 29.5623 	 -14.6994 	 
C 	 -130.36 	 29.9944 	 -15.9252 	 
C 	 -129.757 	 28.9699 	 -16.794 	 
C 	 -129.682 	 27.7331 	 -16.1637 	 
H 	 -130.442 	 31.0556 	 -16.2515 	 
C 	 -129.468 	 29.2395 	 -18.249 	 
H 	 -128.911 	 28.3602 	 -18.6355 	 
H 	 -128.811 	 30.1272 	 -18.3123 	 
C 	 -130.759 	 29.5153 	 -19.0614 	 
H 	 -131.265 	 30.3808 	 -18.6517 	 
H 	 -131.418 	 28.6469 	 -18.7955 	 
C 	 -130.439 	 29.7378 	 -20.5515 	 
H 	 -129.82 	 30.6363 	 -20.6629 	 
H 	 -131.236 	 29.8377 	 -21.2091 	 
H 	 -129.679 	 28.9707 	 -20.8711 	 
H 	 -128.575 	 23.4592 	 -18.5347 	 
H 	 -131.089 	 30.2 	 -13.9037 	 
