34

S 	 -102.458 	 10.1902 	 -121.946 	 
C 	 -103.603 	 9.15084 	 -122.684 	 
C 	 -103.996 	 8.08737 	 -121.835 	 
C 	 -103.284 	 8.15223 	 -120.607 	 
C 	 -102.447 	 9.27321 	 -120.474 	 
H 	 -103.257 	 7.44715 	 -119.789 	 
C 	 -104.875 	 6.94861 	 -122.161 	 
H 	 -105.041 	 6.33962 	 -121.234 	 
H 	 -104.323 	 6.34544 	 -122.854 	 
C 	 -106.211 	 7.28464 	 -122.825 	 
H 	 -106.674 	 7.89353 	 -122.002 	 
H 	 -106.231 	 7.91494 	 -123.728 	 
C 	 -107.018 	 6.06719 	 -123.148 	 
H 	 -107.912 	 6.25035 	 -123.695 	 
H 	 -106.423 	 5.41357 	 -123.768 	 
H 	 -107.318 	 5.5468 	 -122.272 	 
S 	 -100.168 	 10.2261 	 -119.387 	 
C 	 -100.009 	 10.2935 	 -117.624 	 
C 	 -101.237 	 10.0386 	 -116.977 	 
C 	 -102.291 	 9.79876 	 -117.94 	 
C 	 -101.824 	 9.69543 	 -119.257 	 
H 	 -101.295 	 10.1006 	 -115.922 	 
C 	 -103.752 	 9.54634 	 -117.486 	 
H 	 -103.698 	 8.71998 	 -116.801 	 
H 	 -104.471 	 9.35707 	 -118.323 	 
C 	 -104.45 	 10.7071 	 -116.746 	 
H 	 -104.711 	 11.4729 	 -117.395 	 
H 	 -103.762 	 11.2701 	 -116.028 	 
C 	 -105.713 	 10.2186 	 -115.91 	 
H 	 -105.377 	 9.47556 	 -115.163 	 
H 	 -106.442 	 9.6584 	 -116.442 	 
H 	 -106.272 	 11.0782 	 -115.418 	 
H 	 -104.017 	 9.30468 	 -123.648 	 
H 	 -99.0892 	 10.557 	 -117.161 	 
