34

S 	 -56.7083 	 3.21636 	 -20.1758 	 
C 	 -58.0634 	 2.54555 	 -19.3944 	 
C 	 -58.2991 	 3.24766 	 -18.1948 	 
C 	 -57.4165 	 4.28053 	 -17.9284 	 
C 	 -56.4543 	 4.38684 	 -18.8847 	 
H 	 -57.4993 	 4.98582 	 -17.1673 	 
C 	 -59.3336 	 2.78366 	 -17.0832 	 
H 	 -58.7412 	 2.77956 	 -16.2059 	 
H 	 -59.5342 	 1.69356 	 -17.2166 	 
C 	 -60.5858 	 3.65197 	 -17.0222 	 
H 	 -60.3259 	 4.4975 	 -16.4736 	 
H 	 -60.7099 	 4.01438 	 -18.0741 	 
C 	 -61.7834 	 3.03274 	 -16.3386 	 
H 	 -62.3248 	 2.27351 	 -16.9756 	 
H 	 -61.396 	 2.50097 	 -15.4653 	 
H 	 -62.4234 	 3.83839 	 -16.0422 	 
S 	 -53.6446 	 4.45785 	 -18.532 	 
C 	 -52.874 	 6.03753 	 -18.3312 	 
C 	 -53.7904 	 7.03774 	 -18.2062 	 
C 	 -55.1145 	 6.54008 	 -18.4756 	 
C 	 -55.2623 	 5.16921 	 -18.6677 	 
H 	 -53.3991 	 7.99105 	 -17.9758 	 
C 	 -56.2697 	 7.5135 	 -18.4753 	 
H 	 -56.0226 	 8.45077 	 -17.9744 	 
H 	 -56.952 	 7.07715 	 -17.7605 	 
C 	 -56.9267 	 7.85141 	 -19.7547 	 
H 	 -57.5545 	 7.02291 	 -20.0707 	 
H 	 -56.2297 	 7.9918 	 -20.5798 	 
C 	 -57.8041 	 9.058 	 -19.8649 	 
H 	 -58.4035 	 9.09522 	 -18.9945 	 
H 	 -58.4956 	 9.09423 	 -20.7606 	 
H 	 -57.182 	 9.93726 	 -19.9983 	 
H 	 -58.5646 	 1.64916 	 -19.7131 	 
H 	 -51.8051 	 6.15475 	 -18.1655 	 
