34

S 	 -59.6455 	 14.5722 	 -98.1929 	 
C 	 -58.4567 	 15.8147 	 -98.1475 	 
C 	 -57.3022 	 15.3935 	 -98.7118 	 
C 	 -57.2612 	 13.975 	 -98.9444 	 
C 	 -58.5591 	 13.5097 	 -99.0382 	 
H 	 -56.427 	 13.473 	 -99.3299 	 
C 	 -56.1896 	 16.219 	 -99.272 	 
H 	 -55.58 	 15.5691 	 -99.7918 	 
H 	 -55.557 	 16.5179 	 -98.401 	 
C 	 -56.5711 	 17.2725 	 -100.332 	 
H 	 -57.3589 	 17.8922 	 -99.8974 	 
H 	 -55.8193 	 17.945 	 -100.573 	 
C 	 -57.1113 	 16.7099 	 -101.647 	 
H 	 -58.0708 	 16.166 	 -101.557 	 
H 	 -57.3327 	 17.5033 	 -102.39 	 
H 	 -56.3613 	 16.0837 	 -102.108 	 
S 	 -59.7209 	 11.1237 	 -98.1167 	 
C 	 -59.7159 	 9.72193 	 -99.155 	 
C 	 -59.2505 	 10.0238 	 -100.461 	 
C 	 -58.7351 	 11.3613 	 -100.597 	 
C 	 -58.9734 	 12.131 	 -99.4366 	 
H 	 -59.1723 	 9.12151 	 -101.14 	 
C 	 -57.7874 	 11.7096 	 -101.742 	 
H 	 -57.3875 	 10.8463 	 -102.305 	 
H 	 -56.8082 	 11.9135 	 -101.286 	 
C 	 -58.0729 	 12.9686 	 -102.578 	 
H 	 -58.4581 	 13.831 	 -102.084 	 
H 	 -58.9192 	 12.6771 	 -103.207 	 
C 	 -56.9525 	 13.6107 	 -103.457 	 
H 	 -57.1714 	 14.6222 	 -103.8 	 
H 	 -56.7908 	 13.0624 	 -104.368 	 
H 	 -56.0231 	 13.7212 	 -102.895 	 
H 	 -58.6205 	 16.8643 	 -97.8763 	 
H 	 -60.2938 	 8.83277 	 -98.9683 	 
