34

S 	 -65.4138 	 -51.2891 	 -81.7723 	 
C 	 -64.2356 	 -52.4853 	 -82.3981 	 
C 	 -63.1606 	 -52.6402 	 -81.4934 	 
C 	 -63.3218 	 -51.8104 	 -80.2841 	 
C 	 -64.3302 	 -50.912 	 -80.4378 	 
H 	 -62.6598 	 -51.8508 	 -79.3865 	 
C 	 -62.0912 	 -53.7288 	 -81.7003 	 
H 	 -62.643 	 -54.7091 	 -81.8586 	 
H 	 -61.5038 	 -53.8333 	 -80.8287 	 
C 	 -61.1503 	 -53.5129 	 -82.8673 	 
H 	 -60.5821 	 -54.4773 	 -82.8694 	 
H 	 -61.7957 	 -53.3964 	 -83.7027 	 
C 	 -60.1165 	 -52.4228 	 -82.6974 	 
H 	 -60.4721 	 -51.6621 	 -81.9654 	 
H 	 -59.271 	 -52.7896 	 -82.2005 	 
H 	 -59.9344 	 -51.9575 	 -83.7101 	 
S 	 -64.9729 	 -48.3537 	 -79.541 	 
C 	 -65.6687 	 -48.1821 	 -78.027 	 
C 	 -65.6986 	 -49.3224 	 -77.3471 	 
C 	 -65.36 	 -50.4754 	 -78.1074 	 
C 	 -64.7727 	 -50.1056 	 -79.2744 	 
H 	 -66.0127 	 -49.292 	 -76.3005 	 
C 	 -65.5163 	 -51.8734 	 -77.5519 	 
H 	 -65.0513 	 -51.8804 	 -76.5242 	 
H 	 -64.8603 	 -52.5385 	 -78.1363 	 
C 	 -66.9757 	 -52.2679 	 -77.4103 	 
H 	 -67.5266 	 -51.6586 	 -76.7032 	 
H 	 -67.0278 	 -53.2583 	 -76.8838 	 
C 	 -67.7961 	 -52.3267 	 -78.69 	 
H 	 -67.8251 	 -51.4538 	 -79.3598 	 
H 	 -68.8128 	 -52.5067 	 -78.2339 	 
H 	 -67.4234 	 -53.1895 	 -79.3126 	 
H 	 -64.4329 	 -53.1412 	 -83.1942 	 
H 	 -65.971 	 -47.1883 	 -77.6312 	 
