34

S 	 -34.8967 	 12.6715 	 10.2161 	 
C 	 -34.794 	 14.3469 	 9.63348 	 
C 	 -33.5383 	 14.6459 	 9.11726 	 
C 	 -32.6163 	 13.5741 	 9.27702 	 
C 	 -33.0918 	 12.4622 	 9.90093 	 
H 	 -31.5361 	 13.5649 	 8.95596 	 
C 	 -33.2184 	 15.7368 	 8.16353 	 
H 	 -32.1455 	 15.9104 	 8.2926 	 
H 	 -33.8133 	 16.5891 	 8.32993 	 
C 	 -33.2922 	 15.3795 	 6.64539 	 
H 	 -32.7522 	 14.4982 	 6.28213 	 
H 	 -34.3916 	 15.1162 	 6.59025 	 
C 	 -33.119 	 16.4782 	 5.64241 	 
H 	 -32.1227 	 16.833 	 5.67141 	 
H 	 -33.4449 	 16.0661 	 4.65422 	 
H 	 -33.7955 	 17.3078 	 5.93533 	 
S 	 -31.581 	 10.2562 	 9.00414 	 
C 	 -31.1566 	 9.01548 	 10.1743 	 
C 	 -31.3371 	 9.50371 	 11.4623 	 
C 	 -31.9411 	 10.7794 	 11.5126 	 
C 	 -32.2968 	 11.2607 	 10.2741 	 
H 	 -30.9973 	 8.98415 	 12.3779 	 
C 	 -32.2326 	 11.462 	 12.8999 	 
H 	 -31.656 	 10.9569 	 13.7018 	 
H 	 -33.2953 	 11.3699 	 13.0677 	 
C 	 -32.0303 	 12.9152 	 13.0516 	 
H 	 -32.2074 	 13.1739 	 14.0709 	 
H 	 -32.7455 	 13.474 	 12.3443 	 
C 	 -30.5549 	 13.3045 	 12.721 	 
H 	 -30.3506 	 13.3111 	 11.6135 	 
H 	 -29.8368 	 12.6551 	 13.1795 	 
H 	 -30.3963 	 14.3394 	 13.0924 	 
H 	 -35.6779 	 14.9849 	 9.62515 	 
H 	 -30.7082 	 8.07478 	 9.97187 	 
