34

S 	 -145.025 	 1.19647 	 15.2076 	 
C 	 -145.399 	 0.756452 	 13.567 	 
C 	 -145.064 	 1.76739 	 12.6566 	 
C 	 -144.604 	 2.94353 	 13.2884 	 
C 	 -144.395 	 2.72062 	 14.66 	 
H 	 -144.317 	 3.84942 	 12.7609 	 
C 	 -145.301 	 1.76243 	 11.116 	 
H 	 -146.233 	 2.2513 	 11.0627 	 
H 	 -145.555 	 0.779213 	 10.8353 	 
C 	 -144.254 	 2.56343 	 10.2173 	 
H 	 -144.652 	 3.55293 	 10.1454 	 
H 	 -143.235 	 2.55751 	 10.6993 	 
C 	 -144.228 	 2.00221 	 8.81343 	 
H 	 -143.955 	 0.936565 	 8.766 	 
H 	 -145.269 	 1.89054 	 8.36513 	 
H 	 -143.625 	 2.44196 	 8.01455 	 
S 	 -141.973 	 4.01271 	 15.3022 	 
C 	 -141.812 	 4.75376 	 16.8583 	 
C 	 -143.018 	 4.87123 	 17.3919 	 
C 	 -144.124 	 4.32017 	 16.6775 	 
C 	 -143.632 	 3.56306 	 15.6188 	 
H 	 -142.997 	 5.27414 	 18.4106 	 
C 	 -145.557 	 4.40299 	 17.2494 	 
H 	 -145.478 	 4.3011 	 18.3472 	 
H 	 -146.164 	 3.52082 	 16.8934 	 
C 	 -146.272 	 5.69294 	 16.8249 	 
H 	 -145.996 	 5.90154 	 15.8427 	 
H 	 -145.939 	 6.53502 	 17.4775 	 
C 	 -147.817 	 5.59837 	 16.9338 	 
H 	 -148.365 	 6.41531 	 16.5172 	 
H 	 -148.175 	 5.51833 	 17.9765 	 
H 	 -148.126 	 4.5871 	 16.6078 	 
H 	 -145.753 	 -0.243403 	 13.2969 	 
H 	 -140.845 	 5.07346 	 17.1983 	 
