34

S 	 -108.067 	 54.9218 	 -75.9744 	 
C 	 -108.522 	 54.2563 	 -77.5969 	 
C 	 -109.454 	 55.0469 	 -78.207 	 
C 	 -109.882 	 56.1249 	 -77.3329 	 
C 	 -109.361 	 56.1047 	 -76.0488 	 
H 	 -110.594 	 56.8696 	 -77.6189 	 
C 	 -109.972 	 54.9097 	 -79.6202 	 
H 	 -110.19 	 55.9676 	 -79.844 	 
H 	 -110.83 	 54.3128 	 -79.5757 	 
C 	 -108.947 	 54.5194 	 -80.7493 	 
H 	 -108.145 	 55.2669 	 -80.7227 	 
H 	 -108.474 	 53.5641 	 -80.4264 	 
C 	 -109.705 	 54.3126 	 -82.1367 	 
H 	 -110.384 	 53.4447 	 -81.9605 	 
H 	 -110.117 	 55.2814 	 -82.4046 	 
H 	 -108.997 	 53.9842 	 -82.9533 	 
S 	 -108.382 	 57.8236 	 -74.3541 	 
C 	 -109.293 	 58.4709 	 -73.0239 	 
C 	 -110.668 	 58.2296 	 -73.2604 	 
C 	 -110.945 	 57.3961 	 -74.381 	 
C 	 -109.768 	 56.9749 	 -74.9323 	 
H 	 -111.355 	 58.6767 	 -72.5808 	 
C 	 -112.345 	 56.9124 	 -74.7829 	 
H 	 -112.815 	 56.7882 	 -73.8477 	 
H 	 -112.359 	 56.0007 	 -75.3083 	 
C 	 -113.181 	 57.8905 	 -75.5332 	 
H 	 -112.523 	 58.3797 	 -76.1956 	 
H 	 -113.678 	 58.635 	 -74.8354 	 
C 	 -114.306 	 57.3734 	 -76.4729 	 
H 	 -115.269 	 57.3689 	 -76.0776 	 
H 	 -114.146 	 56.3717 	 -76.8952 	 
H 	 -114.368 	 58.0739 	 -77.3322 	 
H 	 -108.029 	 53.545 	 -78.1519 	 
H 	 -108.946 	 59.1215 	 -72.1589 	 
