34

S 	 -132.308 	 60.7634 	 -61.1742 	 
C 	 -131.895 	 62.4829 	 -61.4985 	 
C 	 -131.816 	 63.2684 	 -60.3781 	 
C 	 -132.214 	 62.6145 	 -59.1976 	 
C 	 -132.447 	 61.2812 	 -59.4445 	 
H 	 -132.247 	 63.0467 	 -58.252 	 
C 	 -131.328 	 64.701 	 -60.3568 	 
H 	 -131.049 	 64.8755 	 -61.3922 	 
H 	 -130.342 	 64.7869 	 -59.917 	 
C 	 -132.26 	 65.7461 	 -59.8928 	 
H 	 -132.433 	 65.4967 	 -58.8509 	 
H 	 -131.808 	 66.7476 	 -59.9547 	 
C 	 -133.526 	 65.8594 	 -60.6488 	 
H 	 -134.168 	 66.6598 	 -60.3309 	 
H 	 -133.313 	 65.9112 	 -61.681 	 
H 	 -134.177 	 65.0685 	 -60.5395 	 
S 	 -134.426 	 59.7778 	 -58.2689 	 
C 	 -134.093 	 58.611 	 -57.0118 	 
C 	 -132.765 	 58.6322 	 -56.717 	 
C 	 -132.02 	 59.6565 	 -57.4202 	 
C 	 -132.814 	 60.3825 	 -58.3611 	 
H 	 -132.392 	 57.9306 	 -55.9614 	 
C 	 -130.537 	 59.8943 	 -57.2423 	 
H 	 -130.441 	 60.7572 	 -56.5622 	 
H 	 -130.167 	 60.324 	 -58.1546 	 
C 	 -129.686 	 58.7192 	 -56.8349 	 
H 	 -129.881 	 58.488 	 -55.7881 	 
H 	 -128.661 	 59.1487 	 -56.8155 	 
C 	 -129.713 	 57.4198 	 -57.6535 	 
H 	 -128.893 	 56.6708 	 -57.4589 	 
H 	 -129.609 	 57.5678 	 -58.7415 	 
H 	 -130.699 	 57.103 	 -57.5213 	 
H 	 -131.493 	 62.8021 	 -62.4131 	 
H 	 -134.847 	 58.0342 	 -56.5025 	 
