34

S 	 -40.922 	 -49.7418 	 -78.6197 	 
C 	 -40.1172 	 -50.232 	 -80.0692 	 
C 	 -39.3596 	 -49.1861 	 -80.5754 	 
C 	 -39.5421 	 -48.0016 	 -79.7626 	 
C 	 -40.5109 	 -48.0635 	 -78.8016 	 
H 	 -39.1372 	 -47.0541 	 -80.0616 	 
C 	 -38.4098 	 -49.3421 	 -81.7006 	 
H 	 -37.9818 	 -50.3894 	 -81.5779 	 
H 	 -37.5297 	 -48.6307 	 -81.4933 	 
C 	 -39.07 	 -49.1972 	 -83.0743 	 
H 	 -40.1601 	 -49.4105 	 -83.0167 	 
H 	 -38.9473 	 -48.1595 	 -83.2862 	 
C 	 -38.3805 	 -49.9512 	 -84.2571 	 
H 	 -38.8565 	 -49.8237 	 -85.1749 	 
H 	 -37.3348 	 -49.5539 	 -84.5053 	 
H 	 -38.2876 	 -50.9962 	 -84.0108 	 
S 	 -41.2504 	 -47.356 	 -76.2121 	 
C 	 -41.3597 	 -45.6173 	 -75.7683 	 
C 	 -41.4378 	 -44.854 	 -76.9578 	 
C 	 -41.2063 	 -45.6492 	 -78.1207 	 
C 	 -40.9619 	 -47.0105 	 -77.919 	 
H 	 -41.6582 	 -43.7905 	 -76.9642 	 
C 	 -41.1107 	 -44.933 	 -79.4327 	 
H 	 -40.1945 	 -45.0696 	 -79.9742 	 
H 	 -41.2194 	 -43.8508 	 -79.2785 	 
C 	 -42.1558 	 -45.4631 	 -80.367 	 
H 	 -43.1324 	 -45.5198 	 -79.9294 	 
H 	 -41.9085 	 -46.5073 	 -80.4365 	 
C 	 -42.1612 	 -44.8724 	 -81.792 	 
H 	 -42.969 	 -45.1483 	 -82.428 	 
H 	 -41.3481 	 -45.0339 	 -82.4071 	 
H 	 -42.3157 	 -43.7402 	 -81.7062 	 
H 	 -39.976 	 -51.2833 	 -80.3132 	 
H 	 -41.7331 	 -45.3221 	 -74.822 	 
