34

S 	 -102.311 	 0.172801 	 -106.492 	 
C 	 -101.132 	 1.4215 	 -106.113 	 
C 	 -101.72 	 2.71315 	 -106.263 	 
C 	 -103.147 	 2.6733 	 -106.617 	 
C 	 -103.57 	 1.384 	 -106.874 	 
H 	 -103.81 	 3.52101 	 -106.75 	 
C 	 -101.051 	 4.05895 	 -106.103 	 
H 	 -101.64 	 4.79863 	 -106.644 	 
H 	 -100.099 	 4.05558 	 -106.671 	 
C 	 -100.811 	 4.48557 	 -104.641 	 
H 	 -100.262 	 5.45797 	 -104.637 	 
H 	 -101.689 	 4.78346 	 -104.113 	 
C 	 -100.103 	 3.46038 	 -103.866 	 
H 	 -99.1983 	 3.11699 	 -104.402 	 
H 	 -99.8716 	 3.91659 	 -102.898 	 
H 	 -100.666 	 2.58998 	 -103.7 	 
S 	 -105.48 	 -0.00438752 	 -108.552 	 
C 	 -107.176 	 0.24458 	 -108.269 	 
C 	 -107.328 	 0.950193 	 -107.161 	 
C 	 -106.164 	 1.37937 	 -106.485 	 
C 	 -105.001 	 1.02192 	 -107.171 	 
H 	 -108.36 	 1.02576 	 -106.801 	 
C 	 -106.201 	 2.04717 	 -105.17 	 
H 	 -105.181 	 1.93656 	 -104.702 	 
H 	 -106.919 	 1.56883 	 -104.508 	 
C 	 -106.64 	 3.52461 	 -105.106 	 
H 	 -107.629 	 3.64835 	 -105.522 	 
H 	 -105.921 	 4.06257 	 -105.713 	 
C 	 -106.682 	 3.95674 	 -103.638 	 
H 	 -107.468 	 3.54797 	 -103.048 	 
H 	 -106.67 	 5.0575 	 -103.495 	 
H 	 -105.784 	 3.77112 	 -103.038 	 
H 	 -100.132 	 1.13672 	 -105.603 	 
H 	 -107.956 	 -0.227316 	 -108.82 	 
