34

S 	 -58.1453 	 13.7534 	 -89.7488 	 
C 	 -56.488 	 13.3119 	 -90.1065 	 
C 	 -55.5778 	 14.2836 	 -89.6617 	 
C 	 -56.2557 	 15.3056 	 -88.9791 	 
C 	 -57.6306 	 15.346 	 -89.14 	 
H 	 -55.5972 	 16.0116 	 -88.5658 	 
C 	 -54.0775 	 14.2345 	 -89.6634 	 
H 	 -53.8622 	 13.3356 	 -90.3087 	 
H 	 -53.7164 	 14.0229 	 -88.664 	 
C 	 -53.3789 	 15.5355 	 -90.2677 	 
H 	 -53.8589 	 15.8103 	 -91.1711 	 
H 	 -53.4656 	 16.3209 	 -89.5167 	 
C 	 -51.8529 	 15.418 	 -90.5803 	 
H 	 -51.3967 	 16.3599 	 -90.9493 	 
H 	 -51.3784 	 14.9458 	 -89.7175 	 
H 	 -51.683 	 14.722 	 -91.3809 	 
S 	 -59.9726 	 15.9499 	 -87.9226 	 
C 	 -60.4713 	 17.6294 	 -87.7814 	 
C 	 -59.6048 	 18.4818 	 -88.3803 	 
C 	 -58.4693 	 17.8001 	 -88.9747 	 
C 	 -58.548 	 16.3993 	 -88.7231 	 
H 	 -59.7674 	 19.5418 	 -88.4614 	 
C 	 -57.3447 	 18.4918 	 -89.6826 	 
H 	 -56.4441 	 18.1501 	 -89.1638 	 
H 	 -57.3223 	 19.5402 	 -89.4122 	 
C 	 -57.2341 	 18.1856 	 -91.1914 	 
H 	 -58.1628 	 18.3895 	 -91.7055 	 
H 	 -57.1153 	 17.097 	 -91.3768 	 
C 	 -55.9255 	 18.8391 	 -91.862 	 
H 	 -55.8091 	 18.4761 	 -92.9179 	 
H 	 -55.0528 	 18.5055 	 -91.2881 	 
H 	 -55.9816 	 19.8993 	 -91.8281 	 
H 	 -56.173 	 12.3535 	 -90.3414 	 
H 	 -61.3968 	 17.9257 	 -87.2705 	 
