34

S 	 -77.2536 	 -11.7297 	 -61.3018 	 
C 	 -78.1564 	 -10.7586 	 -60.1184 	 
C 	 -79.3645 	 -11.3483 	 -59.8498 	 
C 	 -79.6084 	 -12.4857 	 -60.7129 	 
C 	 -78.6207 	 -12.8156 	 -61.5966 	 
H 	 -80.5491 	 -13.0185 	 -60.6782 	 
C 	 -80.2963 	 -10.9673 	 -58.7803 	 
H 	 -80.1508 	 -9.99934 	 -58.4373 	 
H 	 -80.1526 	 -11.6264 	 -57.8759 	 
C 	 -81.781 	 -11.0099 	 -59.3424 	 
H 	 -81.8521 	 -10.5571 	 -60.3236 	 
H 	 -82.0656 	 -12.0814 	 -59.3132 	 
C 	 -82.7612 	 -10.2446 	 -58.4466 	 
H 	 -82.6083 	 -9.20017 	 -58.6414 	 
H 	 -83.7066 	 -10.4856 	 -58.8699 	 
H 	 -82.7304 	 -10.441 	 -57.3731 	 
S 	 -77.7959 	 -13.3376 	 -64.168 	 
C 	 -78.2351 	 -14.7646 	 -64.9217 	 
C 	 -78.9521 	 -15.6281 	 -64.0655 	 
C 	 -79.1897 	 -15.003 	 -62.8252 	 
C 	 -78.6378 	 -13.7946 	 -62.6448 	 
H 	 -79.2688 	 -16.6202 	 -64.4931 	 
C 	 -79.9181 	 -15.7051 	 -61.6307 	 
H 	 -79.6642 	 -15.1753 	 -60.7169 	 
H 	 -79.3912 	 -16.6523 	 -61.427 	 
C 	 -81.4142 	 -15.9257 	 -61.9463 	 
H 	 -81.7378 	 -16.7592 	 -61.3899 	 
H 	 -81.5154 	 -16.3546 	 -62.9068 	 
C 	 -82.4694 	 -14.8456 	 -61.5775 	 
H 	 -82.3658 	 -13.8963 	 -62.1421 	 
H 	 -82.4172 	 -14.575 	 -60.5301 	 
H 	 -83.4355 	 -15.1331 	 -61.9091 	 
H 	 -77.9341 	 -9.84708 	 -59.6473 	 
H 	 -78.0531 	 -15.0341 	 -65.9947 	 
