34

S 	 29.2419 	 -30.2019 	 -132.208 	 
C 	 28.8022 	 -28.5406 	 -131.968 	 
C 	 28.8644 	 -28.175 	 -130.597 	 
C 	 29.2426 	 -29.285 	 -129.788 	 
C 	 29.3981 	 -30.4447 	 -130.5 	 
H 	 29.3402 	 -29.203 	 -128.77 	 
C 	 28.4282 	 -26.8158 	 -129.947 	 
H 	 28.9592 	 -25.9428 	 -130.402 	 
H 	 28.7864 	 -26.8079 	 -128.878 	 
C 	 26.9278 	 -26.5807 	 -129.818 	 
H 	 26.4721 	 -26.2033 	 -130.785 	 
H 	 26.3878 	 -27.4802 	 -129.456 	 
C 	 26.7556 	 -25.4527 	 -128.798 	 
H 	 27.6017 	 -24.7889 	 -128.749 	 
H 	 25.903 	 -24.8089 	 -128.862 	 
H 	 26.6979 	 -25.8689 	 -127.819 	 
S 	 31.071 	 -32.4733 	 -130.826 	 
C 	 31.041 	 -33.8863 	 -129.771 	 
C 	 30.0985 	 -33.691 	 -128.81 	 
C 	 29.3318 	 -32.481 	 -128.828 	 
C 	 29.7386 	 -31.7345 	 -129.951 	 
H 	 30.0236 	 -34.4288 	 -127.999 	 
C 	 28.4015 	 -32.0751 	 -127.672 	 
H 	 28.6773 	 -31.1163 	 -127.323 	 
H 	 28.5656 	 -32.8952 	 -126.901 	 
C 	 26.9059 	 -32.0763 	 -128.002 	 
H 	 26.5709 	 -33.0821 	 -128.205 	 
H 	 26.7172 	 -31.4838 	 -128.878 	 
C 	 26.1049 	 -31.4439 	 -126.855 	 
H 	 26.1244 	 -31.8912 	 -125.845 	 
H 	 24.99 	 -31.4284 	 -127.184 	 
H 	 26.3108 	 -30.3789 	 -126.772 	 
H 	 28.539 	 -27.7992 	 -132.769 	 
H 	 31.7573 	 -34.6745 	 -129.861 	 
