34

S 	 -86.9219 	 5.40727 	 -114.414 	 
C 	 -86.5624 	 4.34199 	 -113.03 	 
C 	 -86.9244 	 3.01138 	 -113.249 	 
C 	 -87.3519 	 2.86975 	 -114.617 	 
C 	 -87.5814 	 4.06595 	 -115.29 	 
H 	 -87.5132 	 1.93166 	 -115.091 	 
C 	 -86.8094 	 1.78331 	 -112.41 	 
H 	 -85.8512 	 1.78953 	 -111.906 	 
H 	 -86.8059 	 0.819513 	 -113.1 	 
C 	 -87.8957 	 1.69187 	 -111.276 	 
H 	 -87.6458 	 0.823004 	 -110.667 	 
H 	 -87.7254 	 2.58126 	 -110.685 	 
C 	 -89.3001 	 1.57085 	 -111.803 	 
H 	 -89.6605 	 2.45461 	 -112.274 	 
H 	 -89.3084 	 0.721161 	 -112.523 	 
H 	 -89.9671 	 1.09348 	 -111.075 	 
S 	 -86.9649 	 4.74339 	 -117.92 	 
C 	 -88.214 	 4.79523 	 -119.125 	 
C 	 -89.4397 	 4.57455 	 -118.572 	 
C 	 -89.408 	 4.24508 	 -117.159 	 
C 	 -88.1342 	 4.27439 	 -116.634 	 
H 	 -90.2778 	 4.63038 	 -119.266 	 
C 	 -90.6297 	 3.77649 	 -116.319 	 
H 	 -91.4961 	 4.20894 	 -116.775 	 
H 	 -90.7747 	 4.1946 	 -115.357 	 
C 	 -90.7212 	 2.23056 	 -116.093 	 
H 	 -91.5838 	 1.92344 	 -115.469 	 
H 	 -89.892 	 1.80352 	 -115.464 	 
C 	 -90.6416 	 1.46495 	 -117.426 	 
H 	 -89.8679 	 1.83525 	 -118.056 	 
H 	 -91.5265 	 1.65914 	 -117.995 	 
H 	 -90.4712 	 0.418187 	 -117.452 	 
H 	 -86.2026 	 4.72989 	 -112.09 	 
H 	 -87.9156 	 4.75509 	 -120.116 	 
