34

S 	 -29.324 	 -35.5427 	 -91.2043 	 
C 	 -30.0692 	 -36.9958 	 -91.8524 	 
C 	 -29.244 	 -38.0543 	 -92.0484 	 
C 	 -27.9186 	 -37.7014 	 -91.6891 	 
C 	 -27.8544 	 -36.4089 	 -91.1232 	 
H 	 -26.9929 	 -38.3294 	 -91.7336 	 
C 	 -29.5136 	 -39.3449 	 -92.8523 	 
H 	 -29.1248 	 -40.2838 	 -92.3292 	 
H 	 -29.0492 	 -39.3714 	 -93.8201 	 
C 	 -31.0006 	 -39.5098 	 -93.2074 	 
H 	 -31.3748 	 -38.56 	 -93.6797 	 
H 	 -31.1531 	 -40.2689 	 -93.9985 	 
C 	 -31.948 	 -39.8565 	 -91.9951 	 
H 	 -31.7258 	 -40.7977 	 -91.6858 	 
H 	 -31.9452 	 -39.0543 	 -91.2531 	 
H 	 -32.8988 	 -39.9843 	 -92.5662 	 
S 	 -26.3368 	 -36.4108 	 -88.9015 	 
C 	 -24.8712 	 -35.5327 	 -88.8752 	 
C 	 -24.7503 	 -34.76 	 -90.0206 	 
C 	 -25.8287 	 -34.8293 	 -90.9325 	 
C 	 -26.7516 	 -35.7943 	 -90.4326 	 
H 	 -23.787 	 -34.2685 	 -89.9462 	 
C 	 -25.9394 	 -33.9832 	 -92.1936 	 
H 	 -26.8142 	 -34.3298 	 -92.7168 	 
H 	 -25.0413 	 -34.1839 	 -92.8832 	 
C 	 -26.0122 	 -32.4394 	 -91.9431 	 
H 	 -25.0627 	 -32.2306 	 -91.4018 	 
H 	 -26.8394 	 -32.152 	 -91.2477 	 
C 	 -26.1093 	 -31.6129 	 -93.2504 	 
H 	 -25.9836 	 -30.5481 	 -92.9892 	 
H 	 -26.9788 	 -31.6492 	 -93.8306 	 
H 	 -25.2502 	 -31.9133 	 -93.8759 	 
H 	 -31.1443 	 -37.1186 	 -91.9706 	 
H 	 -24.106 	 -35.7966 	 -88.1574 	 
