34

S 	 -115.626 	 61.3966 	 -68.0117 	 
C 	 -115.904 	 60.2512 	 -66.6552 	 
C 	 -115.711 	 60.8858 	 -65.4653 	 
C 	 -115.571 	 62.3164 	 -65.627 	 
C 	 -115.701 	 62.7941 	 -66.9429 	 
H 	 -115.502 	 63.1528 	 -64.9507 	 
C 	 -115.703 	 60.1651 	 -64.161 	 
H 	 -114.647 	 59.8063 	 -63.9083 	 
H 	 -116.269 	 59.265 	 -64.2986 	 
C 	 -116.339 	 60.9031 	 -62.961 	 
H 	 -115.698 	 61.7741 	 -62.6076 	 
H 	 -117.255 	 61.3929 	 -63.1588 	 
C 	 -116.597 	 60.064 	 -61.76 	 
H 	 -117.026 	 60.6439 	 -60.9532 	 
H 	 -117.344 	 59.2983 	 -62.0018 	 
H 	 -115.686 	 59.6766 	 -61.3057 	 
S 	 -114.816 	 64.7942 	 -68.5932 	 
C 	 -115.574 	 66.4208 	 -68.5262 	 
C 	 -116.575 	 66.4827 	 -67.5733 	 
C 	 -116.727 	 65.1759 	 -67.001 	 
C 	 -115.843 	 64.194 	 -67.3471 	 
H 	 -117.18 	 67.3473 	 -67.4418 	 
C 	 -117.825 	 65.0074 	 -65.9652 	 
H 	 -117.978 	 65.8953 	 -65.3451 	 
H 	 -117.509 	 64.2371 	 -65.3307 	 
C 	 -119.119 	 64.6384 	 -66.5755 	 
H 	 -119.239 	 65.1405 	 -67.4735 	 
H 	 -119.924 	 64.9334 	 -65.8152 	 
C 	 -119.309 	 63.153 	 -66.8689 	 
H 	 -119.22 	 62.5612 	 -65.9791 	 
H 	 -118.583 	 62.807 	 -67.6936 	 
H 	 -120.422 	 62.9522 	 -67.1589 	 
H 	 -116.101 	 59.2115 	 -66.8057 	 
H 	 -115.345 	 67.2571 	 -69.1322 	 
