34

S 	 -69.0712 	 -43.5658 	 -91.0716 	 
C 	 -67.4638 	 -42.8586 	 -90.9207 	 
C 	 -66.5889 	 -43.4096 	 -91.8346 	 
C 	 -67.2691 	 -44.347 	 -92.6634 	 
C 	 -68.6039 	 -44.5897 	 -92.3557 	 
H 	 -66.7497 	 -44.9531 	 -93.3951 	 
C 	 -65.1031 	 -43.0013 	 -91.9002 	 
H 	 -65.0086 	 -41.8964 	 -91.9082 	 
H 	 -64.6144 	 -43.3856 	 -92.8227 	 
C 	 -64.341 	 -43.7051 	 -90.8288 	 
H 	 -63.3973 	 -43.1334 	 -90.7009 	 
H 	 -64.9238 	 -43.6064 	 -89.8786 	 
C 	 -63.9375 	 -45.1405 	 -91.0216 	 
H 	 -63.4706 	 -45.584 	 -90.1292 	 
H 	 -64.8191 	 -45.7798 	 -91.2551 	 
H 	 -63.1783 	 -45.1883 	 -91.8399 	 
S 	 -70.2596 	 -46.8217 	 -92.0883 	 
C 	 -71.1495 	 -47.2891 	 -93.5227 	 
C 	 -70.9139 	 -46.5043 	 -94.6203 	 
C 	 -69.9678 	 -45.4666 	 -94.3779 	 
C 	 -69.5552 	 -45.4679 	 -93.0446 	 
H 	 -71.3246 	 -46.5992 	 -95.5989 	 
C 	 -69.6095 	 -44.459 	 -95.4058 	 
H 	 -69.0786 	 -44.8896 	 -96.2743 	 
H 	 -68.8397 	 -43.817 	 -95.0635 	 
C 	 -70.6631 	 -43.4369 	 -95.8224 	 
H 	 -71.3696 	 -43.9797 	 -96.4441 	 
H 	 -70.2495 	 -42.6853 	 -96.5532 	 
C 	 -71.1487 	 -42.624 	 -94.5675 	 
H 	 -71.8294 	 -43.2786 	 -93.9531 	 
H 	 -71.8859 	 -41.8426 	 -94.8371 	 
H 	 -70.3907 	 -42.1417 	 -93.9354 	 
H 	 -67.202 	 -42.1003 	 -90.2532 	 
H 	 -71.8753 	 -48.1339 	 -93.5185 	 
