34

S 	 -93.458 	 -30.0774 	 -65.9015 	 
C 	 -94.5265 	 -31.3673 	 -66.507 	 
C 	 -95.5117 	 -31.7218 	 -65.5503 	 
C 	 -95.3225 	 -31.0613 	 -64.3107 	 
C 	 -94.2351 	 -30.2031 	 -64.2601 	 
H 	 -95.9718 	 -31.2202 	 -63.3951 	 
C 	 -96.5249 	 -32.7322 	 -65.8481 	 
H 	 -96.8627 	 -33.0444 	 -64.9028 	 
H 	 -95.9759 	 -33.5351 	 -66.1943 	 
C 	 -97.7081 	 -32.2673 	 -66.7346 	 
H 	 -97.2896 	 -31.6195 	 -67.5446 	 
H 	 -98.1975 	 -33.1101 	 -67.3116 	 
C 	 -98.793 	 -31.5107 	 -66.043 	 
H 	 -99.1029 	 -31.9409 	 -65.064 	 
H 	 -98.3893 	 -30.5469 	 -65.8097 	 
H 	 -99.6259 	 -31.249 	 -66.6519 	 
S 	 -92.0414 	 -29.1776 	 -62.8837 	 
C 	 -92.2807 	 -28.4036 	 -61.3478 	 
C 	 -93.6155 	 -28.2363 	 -61.0681 	 
C 	 -94.4711 	 -28.7891 	 -62.089 	 
C 	 -93.8305 	 -29.4074 	 -63.1387 	 
H 	 -93.8876 	 -27.7291 	 -60.0931 	 
C 	 -95.9775 	 -28.6254 	 -61.9953 	 
H 	 -96.4576 	 -29.147 	 -62.822 	 
H 	 -96.1209 	 -27.551 	 -62.1795 	 
C 	 -96.5776 	 -28.9604 	 -60.6019 	 
H 	 -96.122 	 -28.2958 	 -59.8811 	 
H 	 -96.1729 	 -29.9466 	 -60.2258 	 
C 	 -98.0527 	 -28.9372 	 -60.4955 	 
H 	 -98.4926 	 -29.8758 	 -60.9298 	 
H 	 -98.5518 	 -28.064 	 -60.9239 	 
H 	 -98.2585 	 -29.012 	 -59.499 	 
H 	 -94.4974 	 -31.7545 	 -67.5428 	 
H 	 -91.5066 	 -28.0425 	 -60.6953 	 
