34

S 	 -38.1309 	 6.92963 	 -5.14798 	 
C 	 -37.6717 	 5.27536 	 -5.2902 	 
C 	 -37.6921 	 4.6628 	 -4.02283 	 
C 	 -38.11 	 5.5997 	 -2.97658 	 
C 	 -38.1918 	 6.88261 	 -3.37347 	 
H 	 -38.2078 	 5.31671 	 -1.95894 	 
C 	 -37.4525 	 3.21451 	 -3.7957 	 
H 	 -38.228 	 2.56158 	 -4.25095 	 
H 	 -37.5328 	 3.05944 	 -2.72095 	 
C 	 -36.1051 	 2.76334 	 -4.41166 	 
H 	 -36.2202 	 2.95082 	 -5.49696 	 
H 	 -35.2805 	 3.37734 	 -4.19921 	 
C 	 -35.7424 	 1.23768 	 -4.30075 	 
H 	 -35.2476 	 1.10526 	 -3.2915 	 
H 	 -36.5087 	 0.453181 	 -4.58139 	 
H 	 -34.8006 	 1.16509 	 -4.91946 	 
S 	 -39.6322 	 9.12231 	 -3.28893 	 
C 	 -39.5281 	 10.261 	 -2.0313 	 
C 	 -39.026 	 9.68312 	 -0.890883 	 
C 	 -38.3814 	 8.38977 	 -1.16127 	 
C 	 -38.6092 	 8.00232 	 -2.52509 	 
H 	 -39.0013 	 10.2597 	 0.0468153 	 
C 	 -37.573 	 7.62342 	 -0.133013 	 
H 	 -37.3904 	 6.61492 	 -0.446891 	 
H 	 -38.2683 	 7.58382 	 0.737525 	 
C 	 -36.2054 	 8.21172 	 0.147228 	 
H 	 -35.7091 	 7.81053 	 1.05933 	 
H 	 -36.2451 	 9.32653 	 0.313492 	 
C 	 -35.1987 	 7.91159 	 -0.93835 	 
H 	 -35.1116 	 6.85751 	 -1.03516 	 
H 	 -34.1609 	 8.21443 	 -0.691741 	 
H 	 -35.5511 	 8.25892 	 -1.91361 	 
H 	 -37.5296 	 4.73437 	 -6.1897 	 
H 	 -40.0178 	 11.2818 	 -2.07759 	 
