34

S 	 -62.4969 	 7.68272 	 -13.7829 	 
C 	 -61.5924 	 6.73369 	 -12.5851 	 
C 	 -60.3709 	 6.34361 	 -13.1308 	 
C 	 -60.1565 	 6.91525 	 -14.3945 	 
C 	 -61.1411 	 7.70847 	 -14.8714 	 
H 	 -59.1899 	 6.79732 	 -14.9418 	 
C 	 -59.3761 	 5.35986 	 -12.4889 	 
H 	 -59.3009 	 4.42531 	 -13.0584 	 
H 	 -59.86 	 5.04419 	 -11.5716 	 
C 	 -57.9811 	 5.82777 	 -12.157 	 
H 	 -57.5389 	 6.31699 	 -13.0794 	 
H 	 -57.9733 	 6.71799 	 -11.5192 	 
C 	 -57.1273 	 4.73018 	 -11.4747 	 
H 	 -57.7175 	 4.19572 	 -10.7024 	 
H 	 -56.6912 	 3.97161 	 -12.1447 	 
H 	 -56.312 	 5.33572 	 -11.0213 	 
S 	 -61.3506 	 10.2296 	 -15.8839 	 
C 	 -60.9154 	 10.605 	 -17.5256 	 
C 	 -60.713 	 9.43242 	 -18.1862 	 
C 	 -60.8386 	 8.2357 	 -17.3785 	 
C 	 -61.097 	 8.5137 	 -16.0739 	 
H 	 -60.5676 	 9.45834 	 -19.2919 	 
C 	 -60.84 	 6.91326 	 -18.0509 	 
H 	 -61.0501 	 6.09738 	 -17.2913 	 
H 	 -59.8223 	 6.71017 	 -18.3173 	 
C 	 -61.6355 	 6.81853 	 -19.3924 	 
H 	 -61.4944 	 5.80115 	 -19.6551 	 
H 	 -61.1343 	 7.37325 	 -20.2219 	 
C 	 -63.1186 	 7.20984 	 -19.2858 	 
H 	 -63.3282 	 8.33949 	 -19.4093 	 
H 	 -63.5382 	 6.90717 	 -18.3332 	 
H 	 -63.8224 	 6.79105 	 -20.024 	 
H 	 -61.8924 	 6.4891 	 -11.6066 	 
H 	 -60.6867 	 11.6152 	 -17.8506 	 
