34

S 	 -52.4897 	 11.5518 	 -98.7838 	 
C 	 -52.7261 	 9.98544 	 -99.4362 	 
C 	 -51.5272 	 9.41512 	 -99.8428 	 
C 	 -50.5013 	 10.3489 	 -99.7871 	 
C 	 -50.803 	 11.5805 	 -99.1989 	 
H 	 -49.4308 	 10.1455 	 -99.9695 	 
C 	 -51.4525 	 7.93996 	 -100.214 	 
H 	 -52.1763 	 7.41283 	 -99.6972 	 
H 	 -50.5253 	 7.64599 	 -99.7104 	 
C 	 -51.2781 	 7.64836 	 -101.688 	 
H 	 -50.3743 	 8.19933 	 -102.012 	 
H 	 -51.0971 	 6.56659 	 -101.841 	 
C 	 -52.3868 	 8.20172 	 -102.55 	 
H 	 -52.4019 	 7.72383 	 -103.528 	 
H 	 -53.3808 	 8.20048 	 -102.163 	 
H 	 -52.1176 	 9.26394 	 -102.611 	 
S 	 -50.9514 	 14.2249 	 -98.4236 	 
C 	 -49.4439 	 15.0553 	 -98.2555 	 
C 	 -48.3169 	 14.29 	 -98.4141 	 
C 	 -48.6846 	 12.965 	 -98.8872 	 
C 	 -50.0351 	 12.7561 	 -98.9188 	 
H 	 -47.3061 	 14.75 	 -98.2272 	 
C 	 -47.6443 	 11.8459 	 -99.0153 	 
H 	 -48.0967 	 10.9387 	 -98.6413 	 
H 	 -46.849 	 12.0841 	 -98.3521 	 
C 	 -47.1485 	 11.664 	 -100.461 	 
H 	 -46.6142 	 12.6115 	 -100.791 	 
H 	 -47.9667 	 11.4912 	 -101.136 	 
C 	 -46.0791 	 10.6237 	 -100.561 	 
H 	 -45.6267 	 10.6234 	 -101.501 	 
H 	 -46.7211 	 9.75649 	 -100.523 	 
H 	 -45.364 	 10.8 	 -99.7502 	 
H 	 -53.6401 	 9.48592 	 -99.4832 	 
H 	 -49.4261 	 16.0337 	 -97.753 	 
