34

S 	 -118.271 	 27.8589 	 -18.6521 	 
C 	 -118.459 	 27.6542 	 -20.3929 	 
C 	 -118.989 	 28.8169 	 -20.9998 	 
C 	 -118.882 	 29.8975 	 -20.0582 	 
C 	 -118.614 	 29.5428 	 -18.7979 	 
H 	 -119.007 	 30.9625 	 -20.2969 	 
C 	 -119.342 	 29.083 	 -22.4292 	 
H 	 -119.256 	 28.2178 	 -23.0719 	 
H 	 -118.632 	 29.7496 	 -22.8219 	 
C 	 -120.572 	 30.01 	 -22.5969 	 
H 	 -120.257 	 31.0114 	 -22.2306 	 
H 	 -120.818 	 30.1718 	 -23.691 	 
C 	 -121.77 	 29.4266 	 -21.8865 	 
H 	 -122.613 	 30.0311 	 -22.092 	 
H 	 -122.01 	 28.4752 	 -22.3621 	 
H 	 -121.574 	 29.3743 	 -20.7932 	 
S 	 -119.093 	 29.9806 	 -16.1748 	 
C 	 -118.775 	 31.5572 	 -15.3783 	 
C 	 -118.048 	 32.4048 	 -16.234 	 
C 	 -117.831 	 31.7891 	 -17.5336 	 
C 	 -118.429 	 30.4799 	 -17.6477 	 
H 	 -117.669 	 33.3147 	 -15.8925 	 
C 	 -116.899 	 32.3928 	 -18.5658 	 
H 	 -117.014 	 33.4504 	 -18.6169 	 
H 	 -117.268 	 32.2279 	 -19.5782 	 
C 	 -115.44 	 31.9056 	 -18.6221 	 
H 	 -114.88 	 32.4795 	 -19.4005 	 
H 	 -115.482 	 30.8493 	 -18.9955 	 
C 	 -114.773 	 31.9332 	 -17.2219 	 
H 	 -115.171 	 31.2124 	 -16.4997 	 
H 	 -114.694 	 32.8735 	 -16.7401 	 
H 	 -113.671 	 31.7999 	 -17.3462 	 
H 	 -118.352 	 26.643 	 -20.8466 	 
H 	 -119.117 	 31.749 	 -14.4269 	 
