34

S 	 36.0441 	 -32.7334 	 -131.543 	 
C 	 37.6911 	 -32.6362 	 -130.942 	 
C 	 38.2595 	 -33.8673 	 -130.748 	 
C 	 37.3633 	 -34.9204 	 -131.025 	 
C 	 36.1154 	 -34.4387 	 -131.403 	 
H 	 37.4463 	 -35.9761 	 -130.979 	 
C 	 39.7055 	 -34.0734 	 -130.307 	 
H 	 39.8016 	 -35.0314 	 -129.85 	 
H 	 40.0657 	 -33.3192 	 -129.574 	 
C 	 40.7151 	 -34.1783 	 -131.531 	 
H 	 41.6546 	 -34.6678 	 -131.226 	 
H 	 40.2964 	 -34.9884 	 -132.188 	 
C 	 41.1674 	 -32.8699 	 -132.162 	 
H 	 42.1373 	 -32.9829 	 -132.675 	 
H 	 40.5848 	 -32.4797 	 -133.003 	 
H 	 41.3641 	 -32.05 	 -131.492 	 
S 	 33.942 	 -34.8995 	 -133.081 	 
C 	 33.0614 	 -36.3713 	 -132.937 	 
C 	 33.5723 	 -37.2042 	 -131.902 	 
C 	 34.6121 	 -36.5307 	 -131.19 	 
C 	 34.9914 	 -35.3232 	 -131.687 	 
H 	 33.1898 	 -38.1752 	 -131.767 	 
C 	 35.2976 	 -37.3438 	 -130.177 	 
H 	 36.2383 	 -37.6373 	 -130.554 	 
H 	 34.7666 	 -38.262 	 -129.96 	 
C 	 35.3024 	 -36.689 	 -128.807 	 
H 	 34.2983 	 -36.3574 	 -128.5 	 
H 	 35.9218 	 -35.8382 	 -128.883 	 
C 	 35.9536 	 -37.6824 	 -127.79 	 
H 	 36.1672 	 -37.0898 	 -126.882 	 
H 	 36.9564 	 -38.0168 	 -128.172 	 
H 	 35.3261 	 -38.5019 	 -127.463 	 
H 	 38.1774 	 -31.6715 	 -130.8 	 
H 	 32.3093 	 -36.6888 	 -133.642 	 
