34

S 	 -107.543 	 41.6508 	 -10.8692 	 
C 	 -107.26 	 43.3505 	 -11.2802 	 
C 	 -108.026 	 43.7087 	 -12.3417 	 
C 	 -108.948 	 42.701 	 -12.6698 	 
C 	 -108.771 	 41.4898 	 -12.0169 	 
H 	 -109.68 	 42.6666 	 -13.4182 	 
C 	 -107.838 	 45.0009 	 -13.1782 	 
H 	 -107.424 	 45.6838 	 -12.4166 	 
H 	 -108.875 	 45.3868 	 -13.4397 	 
C 	 -106.868 	 44.8995 	 -14.4093 	 
H 	 -106.417 	 45.8686 	 -14.7695 	 
H 	 -105.983 	 44.3482 	 -14.1072 	 
C 	 -107.454 	 44.1462 	 -15.5742 	 
H 	 -108.524 	 44.4994 	 -15.7382 	 
H 	 -106.919 	 44.3982 	 -16.5318 	 
H 	 -107.366 	 43.0906 	 -15.4081 	 
S 	 -108.797 	 38.8443 	 -12.6737 	 
C 	 -110.31 	 37.8986 	 -12.7315 	 
C 	 -111.339 	 38.6791 	 -12.279 	 
C 	 -110.943 	 40.0342 	 -11.9369 	 
C 	 -109.609 	 40.2995 	 -12.1297 	 
H 	 -112.355 	 38.3091 	 -12.2464 	 
C 	 -112 	 41.0559 	 -11.4815 	 
H 	 -111.466 	 41.8404 	 -10.9767 	 
H 	 -112.547 	 40.4787 	 -10.7197 	 
C 	 -112.846 	 41.6109 	 -12.6628 	 
H 	 -113.491 	 40.873 	 -13.0367 	 
H 	 -112.286 	 41.9183 	 -13.5287 	 
C 	 -113.642 	 42.8953 	 -12.1875 	 
H 	 -114.352 	 42.6272 	 -11.333 	 
H 	 -114.195 	 43.2995 	 -13.0414 	 
H 	 -112.973 	 43.7187 	 -11.8967 	 
H 	 -106.362 	 43.8733 	 -10.9146 	 
H 	 -110.328 	 36.8435 	 -13.0275 	 
