34

S 	 -130.38 	 64.7229 	 -58.3056 	 
C 	 -129.22 	 65.541 	 -57.305 	 
C 	 -128.501 	 66.5545 	 -57.8947 	 
C 	 -129.029 	 66.8448 	 -59.1955 	 
C 	 -130.033 	 65.9543 	 -59.5477 	 
H 	 -128.831 	 67.6917 	 -59.8586 	 
C 	 -127.33 	 67.2221 	 -57.4374 	 
H 	 -127.51 	 68.3235 	 -57.6543 	 
H 	 -126.565 	 66.8188 	 -58.0817 	 
C 	 -127.016 	 67.1979 	 -55.9256 	 
H 	 -127.834 	 67.7821 	 -55.4613 	 
H 	 -127.073 	 66.1664 	 -55.5321 	 
C 	 -125.673 	 67.8459 	 -55.6084 	 
H 	 -125.794 	 68.871 	 -56.014 	 
H 	 -125.495 	 67.8775 	 -54.5399 	 
H 	 -124.869 	 67.2971 	 -56.0221 	 
S 	 -132.562 	 66.0743 	 -60.6961 	 
C 	 -132.657 	 66.219 	 -62.4356 	 
C 	 -131.408 	 66.2164 	 -63.0256 	 
C 	 -130.347 	 65.932 	 -62.1216 	 
C 	 -130.817 	 65.9415 	 -60.7868 	 
H 	 -131.381 	 66.3684 	 -64.073 	 
C 	 -128.86 	 65.7967 	 -62.5072 	 
H 	 -128.25 	 65.5303 	 -61.5751 	 
H 	 -128.667 	 66.857 	 -62.726 	 
C 	 -128.498 	 64.9549 	 -63.744 	 
H 	 -127.5 	 65.0995 	 -63.892 	 
H 	 -129.149 	 65.3159 	 -64.478 	 
C 	 -128.846 	 63.4496 	 -63.6818 	 
H 	 -128.39 	 62.9859 	 -62.8087 	 
H 	 -128.496 	 62.8874 	 -64.5181 	 
H 	 -129.961 	 63.5561 	 -63.5298 	 
H 	 -128.957 	 65.2085 	 -56.3003 	 
H 	 -133.624 	 66.4817 	 -62.8476 	 
