34

S 	 -47.2569 	 -48.4426 	 -75.9383 	 
C 	 -48.8051 	 -48.2971 	 -75.2111 	 
C 	 -49.7694 	 -48.9435 	 -75.9837 	 
C 	 -49.2071 	 -49.4088 	 -77.238 	 
C 	 -47.8836 	 -49.144 	 -77.396 	 
H 	 -49.695 	 -49.9523 	 -78.043 	 
C 	 -51.2988 	 -49.1452 	 -75.7211 	 
H 	 -51.4422 	 -48.3699 	 -75.0126 	 
H 	 -51.265 	 -50.0886 	 -75.1949 	 
C 	 -52.1155 	 -49.0061 	 -76.9417 	 
H 	 -51.8451 	 -48.1819 	 -77.4949 	 
H 	 -52.0062 	 -49.8863 	 -77.5327 	 
C 	 -53.6135 	 -48.8242 	 -76.6598 	 
H 	 -54.1627 	 -49.7419 	 -76.4815 	 
H 	 -53.7111 	 -48.0853 	 -75.8405 	 
H 	 -54.1897 	 -48.3903 	 -77.5337 	 
S 	 -45.7331 	 -50.8317 	 -78.1016 	 
C 	 -45.4299 	 -51.0351 	 -79.836 	 
C 	 -46.1968 	 -50.1731 	 -80.5928 	 
C 	 -47.1292 	 -49.4267 	 -79.8269 	 
C 	 -46.9718 	 -49.6262 	 -78.4497 	 
H 	 -46.1088 	 -50.1064 	 -81.6909 	 
C 	 -48.1351 	 -48.4755 	 -80.5217 	 
H 	 -47.4531 	 -48.0201 	 -81.3526 	 
H 	 -48.2198 	 -47.6241 	 -79.8587 	 
C 	 -49.5288 	 -48.9992 	 -81.0149 	 
H 	 -50.1363 	 -48.1853 	 -81.4533 	 
H 	 -50.1002 	 -49.491 	 -80.2347 	 
C 	 -49.4523 	 -50.083 	 -82.0671 	 
H 	 -49.0741 	 -50.9813 	 -81.515 	 
H 	 -48.8875 	 -49.8422 	 -82.941 	 
H 	 -50.4609 	 -50.3135 	 -82.3347 	 
H 	 -49.0297 	 -47.9529 	 -74.2282 	 
H 	 -44.7803 	 -51.7561 	 -80.269 	 
