34

S 	 -49.813 	 14.7455 	 -103.181 	 
C 	 -51.2412 	 13.9984 	 -102.521 	 
C 	 -51.0501 	 12.6321 	 -102.238 	 
C 	 -49.7215 	 12.2008 	 -102.692 	 
C 	 -48.9605 	 13.2351 	 -103.246 	 
H 	 -49.3728 	 11.1758 	 -102.589 	 
C 	 -52.0765 	 11.74 	 -101.569 	 
H 	 -52.929 	 12.4269 	 -101.334 	 
H 	 -51.6592 	 11.3635 	 -100.687 	 
C 	 -52.6053 	 10.5832 	 -102.438 	 
H 	 -51.8176 	 9.84395 	 -102.715 	 
H 	 -53.2993 	 9.96521 	 -101.835 	 
C 	 -53.3597 	 10.9477 	 -103.72 	 
H 	 -53.0605 	 10.1229 	 -104.393 	 
H 	 -54.4863 	 10.8103 	 -103.642 	 
H 	 -53.0638 	 11.8846 	 -104.109 	 
S 	 -47.8517 	 12.4227 	 -105.594 	 
C 	 -46.1433 	 12.5068 	 -105.826 	 
C 	 -45.532 	 13.0915 	 -104.806 	 
C 	 -46.4233 	 13.5301 	 -103.768 	 
C 	 -47.7159 	 13.1445 	 -104.031 	 
H 	 -44.4502 	 13.1897 	 -104.874 	 
C 	 -45.8873 	 14.1419 	 -102.499 	 
H 	 -46.4208 	 15.0618 	 -102.351 	 
H 	 -44.8825 	 14.4187 	 -102.783 	 
C 	 -45.9229 	 13.1304 	 -101.305 	 
H 	 -45.6688 	 12.0968 	 -101.592 	 
H 	 -46.9777 	 12.9887 	 -101.021 	 
C 	 -45.0748 	 13.5469 	 -100.112 	 
H 	 -43.9637 	 13.6899 	 -100.139 	 
H 	 -45.1098 	 12.8526 	 -99.2096 	 
H 	 -45.5193 	 14.5037 	 -99.7961 	 
H 	 -52.1457 	 14.5015 	 -102.239 	 
H 	 -45.6294 	 12.0349 	 -106.64 	 
