34

S 	 25.6924 	 -6.52731 	 -118.769 	 
C 	 24.8323 	 -7.05563 	 -120.167 	 
C 	 25.4884 	 -8.16733 	 -120.741 	 
C 	 26.8268 	 -8.23437 	 -120.328 	 
C 	 27.0971 	 -7.40508 	 -119.262 	 
H 	 27.6389 	 -8.88137 	 -120.655 	 
C 	 24.8669 	 -8.85815 	 -121.941 	 
H 	 23.8713 	 -8.49209 	 -122.136 	 
H 	 24.7833 	 -9.9665 	 -121.784 	 
C 	 25.6797 	 -8.80819 	 -123.247 	 
H 	 26.6827 	 -8.93587 	 -122.953 	 
H 	 25.4545 	 -9.66603 	 -123.788 	 
C 	 25.6125 	 -7.44033 	 -123.985 	 
H 	 25.7705 	 -6.68098 	 -123.231 	 
H 	 26.3455 	 -7.23512 	 -124.815 	 
H 	 24.7163 	 -7.25029 	 -124.441 	 
S 	 29.0535 	 -5.45879 	 -118.761 	 
C 	 30.558 	 -5.8955 	 -117.913 	 
C 	 30.627 	 -7.25573 	 -117.788 	 
C 	 29.3997 	 -7.91516 	 -118.112 	 
C 	 28.4234 	 -7.13203 	 -118.722 	 
H 	 31.4606 	 -7.72872 	 -117.227 	 
C 	 29.1647 	 -9.39707 	 -117.819 	 
H 	 28.5947 	 -9.80817 	 -118.68 	 
H 	 28.4412 	 -9.49114 	 -116.989 	 
C 	 30.4516 	 -10.2623 	 -117.593 	 
H 	 30.8882 	 -10.0703 	 -116.622 	 
H 	 31.1813 	 -10.1178 	 -118.448 	 
C 	 29.9271 	 -11.7028 	 -117.461 	 
H 	 30.838 	 -12.2813 	 -117.56 	 
H 	 29.3171 	 -12.0738 	 -118.245 	 
H 	 29.5039 	 -11.977 	 -116.506 	 
H 	 23.8614 	 -6.76948 	 -120.486 	 
H 	 31.3206 	 -5.30058 	 -117.526 	 
