34

S 	 -105.117 	 45.4659 	 -8.04612 	 
C 	 -106.017 	 46.9978 	 -8.14437 	 
C 	 -106.015 	 47.5657 	 -9.41201 	 
C 	 -105.42 	 46.7265 	 -10.3935 	 
C 	 -104.862 	 45.5726 	 -9.84566 	 
H 	 -105.311 	 46.9258 	 -11.435 	 
C 	 -106.668 	 48.8594 	 -9.78074 	 
H 	 -105.887 	 49.4734 	 -10.2695 	 
H 	 -107.154 	 49.2156 	 -8.84973 	 
C 	 -107.811 	 48.7268 	 -10.7609 	 
H 	 -108.263 	 49.6861 	 -10.9862 	 
H 	 -107.515 	 48.3573 	 -11.7183 	 
C 	 -108.928 	 47.7633 	 -10.2134 	 
H 	 -108.55 	 46.7173 	 -10.1183 	 
H 	 -109.081 	 48.0975 	 -9.18637 	 
H 	 -109.911 	 47.6921 	 -10.7129 	 
S 	 -102.501 	 44.8119 	 -11.0754 	 
C 	 -102.364 	 43.2194 	 -11.7738 	 
C 	 -103.552 	 42.5897 	 -11.8278 	 
C 	 -104.616 	 43.2969 	 -11.0838 	 
C 	 -104.173 	 44.4903 	 -10.5828 	 
H 	 -103.53 	 41.6781 	 -12.3695 	 
C 	 -106.013 	 42.7406 	 -10.7968 	 
H 	 -106.283 	 42.9056 	 -9.78939 	 
H 	 -105.904 	 41.6491 	 -10.9364 	 
C 	 -107.125 	 43.306 	 -11.7228 	 
H 	 -106.642 	 43.3169 	 -12.6407 	 
H 	 -107.206 	 44.305 	 -11.4048 	 
C 	 -108.388 	 42.5215 	 -11.8032 	 
H 	 -109.214 	 43.0653 	 -12.3209 	 
H 	 -108.646 	 42.0641 	 -10.8424 	 
H 	 -108.21 	 41.5992 	 -12.3119 	 
H 	 -106.262 	 47.5073 	 -7.2522 	 
H 	 -101.456 	 42.8799 	 -12.1914 	 
