34

S 	 -107.458 	 41.0032 	 -11.5855 	 
C 	 -107.538 	 42.6396 	 -12.2683 	 
C 	 -108.865 	 43.0735 	 -12.4084 	 
C 	 -109.857 	 42.0649 	 -12.1389 	 
C 	 -109.296 	 40.8999 	 -11.6185 	 
H 	 -110.895 	 42.1656 	 -12.1858 	 
C 	 -109.33 	 44.4717 	 -12.8966 	 
H 	 -108.686 	 45.2592 	 -12.5457 	 
H 	 -110.228 	 44.7089 	 -12.5222 	 
C 	 -109.304 	 44.5905 	 -14.4544 	 
H 	 -109.441 	 45.6463 	 -14.7119 	 
H 	 -108.414 	 44.3413 	 -14.9719 	 
C 	 -110.393 	 43.7559 	 -15.0964 	 
H 	 -111.304 	 44.3597 	 -14.939 	 
H 	 -110.111 	 43.6135 	 -16.1311 	 
H 	 -110.311 	 42.7444 	 -14.6141 	 
S 	 -109.604 	 38.2409 	 -12.0242 	 
C 	 -110.835 	 37.3659 	 -11.1429 	 
C 	 -111.47 	 38.228 	 -10.2731 	 
C 	 -111.199 	 39.5982 	 -10.396 	 
C 	 -110.007 	 39.7362 	 -11.1618 	 
H 	 -112.235 	 37.8325 	 -9.59549 	 
C 	 -111.981 	 40.7188 	 -9.67753 	 
H 	 -111.469 	 41.6641 	 -9.7989 	 
H 	 -111.961 	 40.3924 	 -8.63909 	 
C 	 -113.424 	 40.9194 	 -10.0452 	 
H 	 -113.873 	 41.59 	 -9.28652 	 
H 	 -113.96 	 39.9939 	 -10.0107 	 
C 	 -113.577 	 41.6418 	 -11.4514 	 
H 	 -113.206 	 42.6443 	 -11.4122 	 
H 	 -114.67 	 41.7035 	 -11.5977 	 
H 	 -113.037 	 41.0209 	 -12.2139 	 
H 	 -106.761 	 43.4312 	 -12.2233 	 
H 	 -110.979 	 36.2984 	 -11.1242 	 
