34

S 	 30.9396 	 -25.0126 	 -129.336 	 
C 	 30.3735 	 -25.6342 	 -130.869 	 
C 	 29.2685 	 -26.4908 	 -130.518 	 
C 	 28.8093 	 -26.4059 	 -129.145 	 
C 	 29.5851 	 -25.6212 	 -128.416 	 
H 	 28.0111 	 -26.9702 	 -128.698 	 
C 	 28.5754 	 -27.3494 	 -131.571 	 
H 	 28.7648 	 -26.7731 	 -132.522 	 
H 	 27.5052 	 -27.3552 	 -131.512 	 
C 	 29.2387 	 -28.6773 	 -131.887 	 
H 	 30.2831 	 -28.512 	 -132.009 	 
H 	 29.1074 	 -29.4212 	 -131.068 	 
C 	 28.7375 	 -29.3255 	 -133.152 	 
H 	 27.6235 	 -29.4326 	 -133.207 	 
H 	 28.8834 	 -28.6694 	 -134.004 	 
H 	 29.12 	 -30.3415 	 -133.235 	 
S 	 31.1126 	 -25.6079 	 -126.191 	 
C 	 30.4334 	 -25.3498 	 -124.646 	 
C 	 29.082 	 -25.3695 	 -124.709 	 
C 	 28.5448 	 -25.4465 	 -126.057 	 
C 	 29.5982 	 -25.5262 	 -126.956 	 
H 	 28.4845 	 -25.4182 	 -123.827 	 
C 	 27.0619 	 -25.5498 	 -126.343 	 
H 	 26.9094 	 -26.6478 	 -126.504 	 
H 	 26.9825 	 -25.1717 	 -127.409 	 
C 	 26.0495 	 -24.7812 	 -125.506 	 
H 	 25.8889 	 -25.248 	 -124.509 	 
H 	 25.0784 	 -24.8 	 -126.04 	 
C 	 26.4272 	 -23.3274 	 -125.437 	 
H 	 26.3907 	 -22.9053 	 -126.425 	 
H 	 27.4048 	 -23.1852 	 -125.008 	 
H 	 25.6574 	 -22.805 	 -124.915 	 
H 	 30.9423 	 -25.7335 	 -131.759 	 
H 	 31.0439 	 -25.313 	 -123.774 	 
