34

S 	 -94.0563 	 44.3694 	 -93.9451 	 
C 	 -94.0153 	 42.6501 	 -93.903 	 
C 	 -94.6138 	 42.1482 	 -92.7792 	 
C 	 -95.1006 	 43.1634 	 -91.9443 	 
C 	 -95.0693 	 44.431 	 -92.5308 	 
H 	 -95.5343 	 43.0554 	 -90.9551 	 
C 	 -94.9706 	 40.755 	 -92.4702 	 
H 	 -95.0121 	 40.6298 	 -91.3942 	 
H 	 -94.1745 	 40.2151 	 -92.8747 	 
C 	 -96.2942 	 40.3126 	 -93.1741 	 
H 	 -96.3185 	 40.4679 	 -94.2597 	 
H 	 -96.4222 	 39.2702 	 -93.0562 	 
C 	 -97.5722 	 40.9396 	 -92.4545 	 
H 	 -98.4369 	 40.4275 	 -92.8456 	 
H 	 -97.6159 	 40.7372 	 -91.3489 	 
H 	 -97.739 	 42.0205 	 -92.5699 	 
S 	 -94.2174 	 46.6417 	 -91.1015 	 
C 	 -95.3698 	 47.8971 	 -90.7818 	 
C 	 -96.6366 	 47.3965 	 -90.8534 	 
C 	 -96.8017 	 46.1831 	 -91.6273 	 
C 	 -95.4934 	 45.6845 	 -91.8641 	 
H 	 -97.5128 	 47.9771 	 -90.5795 	 
C 	 -98.088 	 45.6064 	 -92.1653 	 
H 	 -97.9377 	 45.0793 	 -93.0992 	 
H 	 -98.6827 	 46.4375 	 -92.4987 	 
C 	 -98.9679 	 44.7751 	 -91.1398 	 
H 	 -99.0819 	 45.2342 	 -90.0878 	 
H 	 -98.498 	 43.8309 	 -90.9176 	 
C 	 -100.424 	 44.4431 	 -91.6709 	 
H 	 -101.044 	 45.311 	 -91.6613 	 
H 	 -100.967 	 43.7814 	 -90.899 	 
H 	 -100.495 	 44.031 	 -92.6924 	 
H 	 -93.6897 	 42.0661 	 -94.708 	 
H 	 -95.2142 	 48.7309 	 -90.1655 	 
