34

S 	 -64.3686 	 11.2944 	 -74.9242 	 
C 	 -66.1265 	 11.3831 	 -74.8835 	 
C 	 -66.5635 	 12.4204 	 -75.6894 	 
C 	 -65.5513 	 13.1225 	 -76.3847 	 
C 	 -64.2632 	 12.5603 	 -76.1162 	 
H 	 -65.4837 	 14.0442 	 -76.9982 	 
C 	 -67.9928 	 12.8806 	 -75.9105 	 
H 	 -68.4837 	 11.8538 	 -76.1744 	 
H 	 -67.8884 	 13.5343 	 -76.8597 	 
C 	 -68.5944 	 13.6561 	 -74.6612 	 
H 	 -69.5879 	 13.8799 	 -74.8397 	 
H 	 -68.5258 	 12.9436 	 -73.8454 	 
C 	 -67.8945 	 15.0676 	 -74.4536 	 
H 	 -67.9731 	 15.2541 	 -73.3509 	 
H 	 -66.7933 	 15.173 	 -74.4935 	 
H 	 -68.3794 	 15.8017 	 -75.0854 	 
S 	 -61.8256 	 13.7729 	 -75.7298 	 
C 	 -60.7718 	 14.0432 	 -77.0675 	 
C 	 -61.1949 	 13.4591 	 -78.2122 	 
C 	 -62.5048 	 12.8545 	 -78.0007 	 
C 	 -63.0024 	 12.964 	 -76.7281 	 
H 	 -60.6137 	 13.5348 	 -79.1058 	 
C 	 -63.2864 	 12.2167 	 -79.1657 	 
H 	 -63.983 	 11.4011 	 -78.8281 	 
H 	 -62.7519 	 11.6361 	 -79.9012 	 
C 	 -64.2095 	 13.2341 	 -79.8666 	 
H 	 -63.5976 	 14.069 	 -80.297 	 
H 	 -64.8181 	 13.7884 	 -79.1106 	 
C 	 -65.2185 	 12.7016 	 -80.8585 	 
H 	 -64.6214 	 12.1698 	 -81.5356 	 
H 	 -65.6505 	 13.3642 	 -81.6022 	 
H 	 -66.0236 	 12.1082 	 -80.4654 	 
H 	 -66.7134 	 10.6863 	 -74.3067 	 
H 	 -59.9198 	 14.712 	 -76.9857 	 
