34

S 	 -67.5471 	 8.22094 	 -75.0482 	 
C 	 -68.8192 	 9.03313 	 -74.1335 	 
C 	 -68.9734 	 8.50899 	 -72.8325 	 
C 	 -67.9826 	 7.41673 	 -72.6737 	 
C 	 -67.2353 	 7.03306 	 -73.7706 	 
H 	 -67.9504 	 6.80353 	 -71.7815 	 
C 	 -70.0386 	 8.83333 	 -71.7802 	 
H 	 -70.0533 	 9.89683 	 -71.5603 	 
H 	 -69.7364 	 8.39197 	 -70.865 	 
C 	 -71.4417 	 8.38511 	 -72.0202 	 
H 	 -71.5705 	 7.38347 	 -71.9793 	 
H 	 -71.9965 	 8.74557 	 -71.1509 	 
C 	 -72.1638 	 8.79012 	 -73.3149 	 
H 	 -71.6571 	 8.19694 	 -74.0517 	 
H 	 -73.1796 	 8.53725 	 -73.3359 	 
H 	 -71.8755 	 9.81805 	 -73.5527 	 
S 	 -64.6816 	 6.55804 	 -74.6226 	 
C 	 -63.9993 	 4.8835 	 -74.5078 	 
C 	 -64.9629 	 4.03794 	 -74.0166 	 
C 	 -66.2027 	 4.6698 	 -73.7168 	 
C 	 -66.2429 	 5.99643 	 -74.0021 	 
H 	 -64.665 	 3.00206 	 -73.9196 	 
C 	 -67.2962 	 3.8473 	 -73.129 	 
H 	 -67.6729 	 4.37257 	 -72.2406 	 
H 	 -66.9338 	 2.89163 	 -72.7648 	 
C 	 -68.4839 	 3.60146 	 -74.0873 	 
H 	 -67.9973 	 3.23026 	 -74.9707 	 
H 	 -69.0063 	 4.52912 	 -74.3706 	 
C 	 -69.4809 	 2.66084 	 -73.4133 	 
H 	 -69.6556 	 2.72629 	 -72.3146 	 
H 	 -69.1472 	 1.58985 	 -73.5856 	 
H 	 -70.399 	 2.80075 	 -74.0075 	 
H 	 -69.4578 	 9.82354 	 -74.5272 	 
H 	 -62.9299 	 4.6383 	 -74.6639 	 
