34

S 	 -78.96 	 -20.6359 	 -54.0876 	 
C 	 -80.1145 	 -19.4011 	 -54.2456 	 
C 	 -80.96 	 -19.3381 	 -53.2042 	 
C 	 -80.8364 	 -20.4836 	 -52.3615 	 
C 	 -79.888 	 -21.3522 	 -52.8051 	 
H 	 -81.357 	 -20.7334 	 -51.4796 	 
C 	 -81.8525 	 -18.1771 	 -52.904 	 
H 	 -82.7448 	 -18.6907 	 -52.4676 	 
H 	 -82.2725 	 -17.7295 	 -53.8087 	 
C 	 -81.2417 	 -17.1602 	 -51.8281 	 
H 	 -80.2333 	 -16.7816 	 -52.0272 	 
H 	 -81.8773 	 -16.3127 	 -51.8782 	 
C 	 -81.2967 	 -17.6913 	 -50.3468 	 
H 	 -82.1973 	 -18.3021 	 -50.0988 	 
H 	 -80.4468 	 -18.2154 	 -49.9934 	 
H 	 -81.4293 	 -16.7386 	 -49.8712 	 
S 	 -80.6971 	 -23.6087 	 -51.4967 	 
C 	 -79.5034 	 -24.6645 	 -50.8329 	 
C 	 -78.1929 	 -24.4177 	 -51.1423 	 
C 	 -78.2215 	 -23.1705 	 -51.8355 	 
C 	 -79.4304 	 -22.5681 	 -52.1266 	 
H 	 -77.3936 	 -24.9938 	 -50.8071 	 
C 	 -76.8766 	 -22.5693 	 -52.1752 	 
H 	 -76.1027 	 -22.8252 	 -51.3597 	 
H 	 -76.8658 	 -21.5009 	 -52.0758 	 
C 	 -76.3212 	 -22.9126 	 -53.543 	 
H 	 -75.3083 	 -22.4104 	 -53.6009 	 
H 	 -76.7955 	 -22.374 	 -54.4529 	 
C 	 -75.9822 	 -24.4237 	 -53.6876 	 
H 	 -75.3571 	 -24.7069 	 -52.899 	 
H 	 -75.4297 	 -24.6082 	 -54.62 	 
H 	 -76.9039 	 -25.0161 	 -53.7083 	 
H 	 -79.9054 	 -18.5234 	 -54.7935 	 
H 	 -79.6525 	 -25.4583 	 -50.1672 	 
