34

S 	 45.097 	 -16.1406 	 -108.887 	 
C 	 44.1522 	 -15.9742 	 -110.312 	 
C 	 44.2233 	 -14.7094 	 -110.781 	 
C 	 44.953 	 -13.8502 	 -109.896 	 
C 	 45.2287 	 -14.3572 	 -108.673 	 
H 	 45.156 	 -12.7822 	 -110.038 	 
C 	 43.7056 	 -14.2058 	 -112.141 	 
H 	 43.5559 	 -14.9743 	 -112.87 	 
H 	 44.5449 	 -13.5852 	 -112.419 	 
C 	 42.4292 	 -13.3001 	 -112.124 	 
H 	 41.5927 	 -13.8409 	 -111.663 	 
H 	 42.5298 	 -12.3432 	 -111.618 	 
C 	 42.0287 	 -12.8277 	 -113.523 	 
H 	 41.7939 	 -13.5787 	 -114.241 	 
H 	 41.2335 	 -12.0689 	 -113.54 	 
H 	 42.8424 	 -12.2019 	 -114.052 	 
S 	 45.4472 	 -14.1314 	 -106.006 	 
C 	 46.5786 	 -13.0889 	 -105.249 	 
C 	 47.3401 	 -12.3949 	 -106.163 	 
C 	 46.9583 	 -12.7615 	 -107.532 	 
C 	 45.9348 	 -13.738 	 -107.526 	 
H 	 48.1278 	 -11.7548 	 -105.691 	 
C 	 47.6631 	 -12.2849 	 -108.797 	 
H 	 46.9203 	 -11.5615 	 -109.208 	 
H 	 47.7904 	 -13.1366 	 -109.467 	 
C 	 48.9978 	 -11.4661 	 -108.669 	 
H 	 48.792 	 -10.5781 	 -108.07 	 
H 	 49.301 	 -11.098 	 -109.701 	 
C 	 50.2104 	 -12.2663 	 -108.089 	 
H 	 51.1366 	 -11.719 	 -108.295 	 
H 	 50.3354 	 -13.2209 	 -108.615 	 
H 	 50.2336 	 -12.4124 	 -107.032 	 
H 	 43.6549 	 -16.7842 	 -110.89 	 
H 	 46.7661 	 -12.9749 	 -104.225 	 
