34

S 	 48.276 	 -14.1702 	 -109.645 	 
C 	 48.6732 	 -14.3904 	 -111.3 	 
C 	 48.1173 	 -13.3948 	 -112.141 	 
C 	 47.1993 	 -12.5715 	 -111.428 	 
C 	 47.1108 	 -12.8938 	 -110.077 	 
H 	 46.7009 	 -11.611 	 -111.737 	 
C 	 48.5292 	 -13.0126 	 -113.606 	 
H 	 47.6537 	 -12.5831 	 -114.073 	 
H 	 48.6438 	 -13.8937 	 -114.204 	 
C 	 49.7574 	 -12.0925 	 -113.725 	 
H 	 49.4892 	 -11.188 	 -113.087 	 
H 	 50.6673 	 -12.5871 	 -113.368 	 
C 	 50.0803 	 -11.6348 	 -115.162 	 
H 	 50.8346 	 -10.9211 	 -115.194 	 
H 	 50.3633 	 -12.4731 	 -115.811 	 
H 	 49.2775 	 -11.1068 	 -115.734 	 
S 	 44.7501 	 -12.8567 	 -108.803 	 
C 	 44.4314 	 -11.5954 	 -107.687 	 
C 	 45.4959 	 -10.7508 	 -107.46 	 
C 	 46.6059 	 -11.0764 	 -108.362 	 
C 	 46.318 	 -12.1765 	 -109.144 	 
H 	 45.4146 	 -10.045 	 -106.682 	 
C 	 47.9846 	 -10.4187 	 -108.253 	 
H 	 48.6501 	 -11.1641 	 -108.072 	 
H 	 47.9639 	 -9.76669 	 -107.373 	 
C 	 48.4833 	 -9.59475 	 -109.476 	 
H 	 48.6405 	 -10.2608 	 -110.344 	 
H 	 49.4288 	 -9.14771 	 -109.147 	 
C 	 47.7163 	 -8.33658 	 -109.86 	 
H 	 46.784 	 -8.60484 	 -110.386 	 
H 	 48.3043 	 -7.74197 	 -110.609 	 
H 	 47.5069 	 -7.65883 	 -109.03 	 
H 	 49.4893 	 -15.1041 	 -111.565 	 
H 	 43.6328 	 -11.561 	 -106.943 	 
