34

S 	 -82.6883 	 -38.0424 	 -74.7945 	 
C 	 -83.5523 	 -37.8746 	 -76.3011 	 
C 	 -84.0045 	 -39.1077 	 -76.7776 	 
C 	 -83.6021 	 -40.1977 	 -75.9607 	 
C 	 -82.794 	 -39.817 	 -74.8807 	 
H 	 -83.9091 	 -41.2639 	 -76.0401 	 
C 	 -84.6819 	 -39.3473 	 -78.0727 	 
H 	 -85.3863 	 -38.5102 	 -78.1021 	 
H 	 -85.1272 	 -40.292 	 -78.2512 	 
C 	 -83.8338 	 -39.1778 	 -79.358 	 
H 	 -84.4663 	 -39.3461 	 -80.1857 	 
H 	 -83.4275 	 -38.1186 	 -79.3751 	 
C 	 -82.657 	 -40.1672 	 -79.4169 	 
H 	 -82.0727 	 -39.9413 	 -78.5413 	 
H 	 -83.0299 	 -41.189 	 -79.333 	 
H 	 -82.1279 	 -39.9253 	 -80.3435 	 
S 	 -80.3352 	 -40.4634 	 -73.7644 	 
C 	 -80.1655 	 -42.0478 	 -73.2186 	 
C 	 -81.3652 	 -42.7069 	 -73.0013 	 
C 	 -82.5173 	 -41.917 	 -73.38 	 
C 	 -82.1362 	 -40.6958 	 -73.9085 	 
H 	 -81.2838 	 -43.7571 	 -72.5992 	 
C 	 -83.9192 	 -42.3485 	 -73.1835 	 
H 	 -84.6016 	 -41.6952 	 -73.7294 	 
H 	 -84.09 	 -42.185 	 -72.1675 	 
C 	 -84.2075 	 -43.872 	 -73.5454 	 
H 	 -85.2197 	 -44.1062 	 -73.2264 	 
H 	 -83.5614 	 -44.6026 	 -73.0534 	 
C 	 -84.0124 	 -44.2461 	 -75.0072 	 
H 	 -83.0507 	 -43.8674 	 -75.2898 	 
H 	 -84.7024 	 -43.8581 	 -75.7111 	 
H 	 -83.9752 	 -45.3373 	 -75.0238 	 
H 	 -83.6976 	 -36.9964 	 -76.8375 	 
H 	 -79.1824 	 -42.3803 	 -72.8872 	 
