34

S 	 -129.479 	 65.8396 	 -35.9414 	 
C 	 -128.733 	 64.8444 	 -37.1099 	 
C 	 -127.376 	 64.9557 	 -37.1493 	 
C 	 -126.914 	 65.8657 	 -36.164 	 
C 	 -127.942 	 66.393 	 -35.375 	 
H 	 -125.818 	 65.9835 	 -35.9105 	 
C 	 -126.388 	 64.2298 	 -38.1056 	 
H 	 -126.95 	 63.3289 	 -38.3715 	 
H 	 -125.474 	 63.8628 	 -37.6708 	 
C 	 -126.258 	 64.8818 	 -39.4472 	 
H 	 -125.629 	 64.3424 	 -40.1731 	 
H 	 -127.263 	 64.9143 	 -39.841 	 
C 	 -125.729 	 66.3405 	 -39.4458 	 
H 	 -124.69 	 66.4795 	 -39.1859 	 
H 	 -125.856 	 66.7654 	 -40.3866 	 
H 	 -126.265 	 67.0436 	 -38.8517 	 
S 	 -129.093 	 67.495 	 -33.203 	 
C 	 -128.364 	 68.8491 	 -32.3329 	 
C 	 -127.262 	 69.2522 	 -32.9681 	 
C 	 -126.961 	 68.4812 	 -34.1395 	 
C 	 -127.89 	 67.4498 	 -34.4056 	 
H 	 -126.738 	 70.1561 	 -32.6584 	 
C 	 -125.763 	 68.7056 	 -34.9667 	 
H 	 -125.6 	 69.8123 	 -35.0585 	 
H 	 -125.955 	 68.4053 	 -35.9556 	 
C 	 -124.488 	 68.1474 	 -34.3704 	 
H 	 -124.396 	 67.0762 	 -34.3208 	 
H 	 -124.42 	 68.6385 	 -33.3606 	 
C 	 -123.405 	 68.4298 	 -35.3859 	 
H 	 -123.126 	 69.4752 	 -35.3582 	 
H 	 -123.752 	 68.3268 	 -36.3785 	 
H 	 -122.519 	 67.8876 	 -35.192 	 
H 	 -129.289 	 64.1711 	 -37.8039 	 
H 	 -128.807 	 69.4357 	 -31.547 	 
