34

S 	 -46.3189 	 -7.01631 	 -16.5308 	 
C 	 -46.6811 	 -8.34767 	 -17.569 	 
C 	 -47.7734 	 -8.0862 	 -18.3629 	 
C 	 -48.1584 	 -6.68799 	 -18.3642 	 
C 	 -47.2876 	 -5.93295 	 -17.5613 	 
H 	 -48.948 	 -6.16563 	 -18.8778 	 
C 	 -48.4295 	 -9.06877 	 -19.3197 	 
H 	 -47.6455 	 -9.76309 	 -19.5951 	 
H 	 -48.5997 	 -8.42026 	 -20.1754 	 
C 	 -49.7374 	 -9.74335 	 -18.7809 	 
H 	 -49.6265 	 -10.5041 	 -17.9745 	 
H 	 -50.4539 	 -9.07205 	 -18.4154 	 
C 	 -50.5441 	 -10.4913 	 -19.7627 	 
H 	 -49.8325 	 -10.9939 	 -20.3329 	 
H 	 -51.2062 	 -11.1925 	 -19.276 	 
H 	 -51.0639 	 -9.72238 	 -20.4144 	 
S 	 -46.5698 	 -3.74698 	 -18.8378 	 
C 	 -46.4782 	 -2.25632 	 -18.0447 	 
C 	 -46.8209 	 -2.38186 	 -16.6662 	 
C 	 -46.9846 	 -3.74104 	 -16.2798 	 
C 	 -47.2208 	 -4.51445 	 -17.3832 	 
H 	 -46.7617 	 -1.52611 	 -16.0223 	 
C 	 -47.3176 	 -4.18554 	 -14.8519 	 
H 	 -46.4026 	 -4.60451 	 -14.4655 	 
H 	 -48.0302 	 -5.01541 	 -14.9562 	 
C 	 -47.9082 	 -3.20328 	 -13.8124 	 
H 	 -48.9824 	 -3.13395 	 -13.8766 	 
H 	 -47.5832 	 -2.24039 	 -14.047 	 
C 	 -47.6665 	 -3.51862 	 -12.3013 	 
H 	 -46.6627 	 -3.62835 	 -11.9786 	 
H 	 -48.1395 	 -4.45848 	 -12.028 	 
H 	 -48.1386 	 -2.81043 	 -11.5627 	 
H 	 -46.2075 	 -9.34965 	 -17.4017 	 
H 	 -46.319 	 -1.31055 	 -18.547 	 
