34

S 	 -36.5851 	 -8.3621 	 20.1715 	 
C 	 -35.8045 	 -9.93729 	 20.0489 	 
C 	 -35.8341 	 -10.4683 	 18.8084 	 
C 	 -36.3926 	 -9.54973 	 17.9038 	 
C 	 -36.8104 	 -8.31315 	 18.438 	 
H 	 -36.5027 	 -9.75477 	 16.8004 	 
C 	 -35.2069 	 -11.8214 	 18.4022 	 
H 	 -36.0035 	 -12.58 	 18.4568 	 
H 	 -34.4482 	 -12.2506 	 19.0806 	 
C 	 -34.6626 	 -11.9122 	 16.9943 	 
H 	 -34.2681 	 -12.9687 	 16.9276 	 
H 	 -35.5328 	 -11.8287 	 16.4044 	 
C 	 -33.6448 	 -10.8126 	 16.6812 	 
H 	 -33.1386 	 -10.9268 	 15.727 	 
H 	 -34.1336 	 -9.87184 	 16.5386 	 
H 	 -32.9253 	 -10.6741 	 17.4635 	 
S 	 -38.9223 	 -6.55215 	 18.6267 	 
C 	 -38.9068 	 -5.06797 	 17.7189 	 
C 	 -37.9183 	 -5.16719 	 16.7169 	 
C 	 -37.211 	 -6.48281 	 16.6897 	 
C 	 -37.5336 	 -7.22628 	 17.8094 	 
H 	 -37.9414 	 -4.3375 	 16.0267 	 
C 	 -36.1264 	 -6.87322 	 15.5954 	 
H 	 -36.0751 	 -7.96725 	 15.4195 	 
H 	 -35.1299 	 -6.51978 	 15.8476 	 
C 	 -36.5349 	 -6.30136 	 14.229 	 
H 	 -35.6452 	 -6.37582 	 13.5292 	 
H 	 -36.6875 	 -5.22402 	 14.1936 	 
C 	 -37.7456 	 -6.79133 	 13.5751 	 
H 	 -38.6426 	 -6.45561 	 14.1284 	 
H 	 -37.837 	 -7.807 	 13.3681 	 
H 	 -37.9083 	 -6.31295 	 12.632 	 
H 	 -35.2782 	 -10.3736 	 20.9283 	 
H 	 -39.5626 	 -4.18831 	 17.8189 	 
