34

S 	 -40.4386 	 -8.99108 	 7.62025 	 
C 	 -41.0409 	 -10.6499 	 7.47628 	 
C 	 -40.1405 	 -11.4688 	 6.77916 	 
C 	 -39.0691 	 -10.7196 	 6.14403 	 
C 	 -39.1092 	 -9.38238 	 6.47802 	 
H 	 -38.2403 	 -11.1187 	 5.61585 	 
C 	 -40.3678 	 -12.9952 	 6.62884 	 
H 	 -39.571 	 -13.3174 	 5.86828 	 
H 	 -41.4276 	 -13.2545 	 6.28492 	 
C 	 -40.1957 	 -13.8472 	 7.8992 	 
H 	 -39.1497 	 -13.7144 	 8.19004 	 
H 	 -40.8171 	 -13.4627 	 8.6992 	 
C 	 -40.4926 	 -15.3315 	 7.62393 	 
H 	 -40.4874 	 -15.9148 	 8.46652 	 
H 	 -41.4264 	 -15.4967 	 7.02247 	 
H 	 -39.6563 	 -15.7345 	 7.1119 	 
S 	 -37.1339 	 -7.45773 	 7.03791 	 
C 	 -36.578 	 -6.49938 	 5.72523 	 
C 	 -37.0723 	 -6.96829 	 4.50857 	 
C 	 -37.9307 	 -8.11132 	 4.56483 	 
C 	 -38.2188 	 -8.35747 	 5.95488 	 
H 	 -36.6857 	 -6.4172 	 3.66304 	 
C 	 -38.6531 	 -8.55672 	 3.31664 	 
H 	 -38.6444 	 -9.63492 	 3.42207 	 
H 	 -38.1733 	 -8.33544 	 2.38881 	 
C 	 -40.0667 	 -8.06586 	 3.18806 	 
H 	 -40.11 	 -7.01237 	 3.34594 	 
H 	 -40.5796 	 -8.56958 	 4.02103 	 
C 	 -40.7153 	 -8.33168 	 1.79292 	 
H 	 -41.6226 	 -7.74908 	 1.6062 	 
H 	 -40.8691 	 -9.41959 	 1.71467 	 
H 	 -40.0917 	 -8.00914 	 0.974787 	 
H 	 -41.879 	 -11.1377 	 7.83304 	 
H 	 -35.9253 	 -5.62547 	 5.78899 	 
