34

S 	 -85.7571 	 -47.1735 	 -85.7122 	 
C 	 -87.2626 	 -46.4231 	 -86.0935 	 
C 	 -87.9092 	 -45.8989 	 -85.0186 	 
C 	 -87.2047 	 -46.1047 	 -83.8332 	 
C 	 -86.1397 	 -46.9555 	 -83.9883 	 
H 	 -87.604 	 -45.7673 	 -82.8513 	 
C 	 -89.3133 	 -45.3991 	 -84.9722 	 
H 	 -89.7815 	 -45.4543 	 -85.9024 	 
H 	 -89.3359 	 -44.3373 	 -84.735 	 
C 	 -90.1476 	 -46.0528 	 -83.864 	 
H 	 -89.8941 	 -45.7599 	 -82.8835 	 
H 	 -91.1282 	 -45.5404 	 -83.9342 	 
C 	 -90.2215 	 -47.5639 	 -83.8413 	 
H 	 -91.0806 	 -47.9227 	 -83.2717 	 
H 	 -90.3292 	 -47.9025 	 -84.891 	 
H 	 -89.302 	 -47.8774 	 -83.386 	 
S 	 -85.593 	 -49.4523 	 -82.8011 	 
C 	 -84.4638 	 -49.5077 	 -81.4272 	 
C 	 -83.7619 	 -48.3105 	 -81.3415 	 
C 	 -84.3609 	 -47.2931 	 -82.1643 	 
C 	 -85.4103 	 -47.6606 	 -82.9657 	 
H 	 -82.9085 	 -48.2119 	 -80.6593 	 
C 	 -83.7086 	 -45.9508 	 -82.2226 	 
H 	 -83.7227 	 -45.5997 	 -83.2282 	 
H 	 -82.6428 	 -46.0603 	 -81.8638 	 
C 	 -84.3641 	 -45.0004 	 -81.228 	 
H 	 -84.3938 	 -45.4107 	 -80.2478 	 
H 	 -85.4197 	 -44.8229 	 -81.5638 	 
C 	 -83.5941 	 -43.7325 	 -81.1455 	 
H 	 -83.2075 	 -43.4793 	 -82.1208 	 
H 	 -82.6484 	 -43.9591 	 -80.736 	 
H 	 -84.0372 	 -42.848 	 -80.587 	 
H 	 -87.7332 	 -46.4852 	 -87.0767 	 
H 	 -84.0908 	 -50.368 	 -80.9131 	 
