34

S 	 -85.2663 	 -31.9679 	 -54.8846 	 
C 	 -83.6032 	 -32.3262 	 -55.1109 	 
C 	 -82.7438 	 -31.4767 	 -54.5076 	 
C 	 -83.4856 	 -30.5517 	 -53.6536 	 
C 	 -84.8345 	 -30.8289 	 -53.6317 	 
H 	 -83.0593 	 -29.9159 	 -52.8723 	 
C 	 -81.214 	 -31.4407 	 -54.564 	 
H 	 -80.7651 	 -32.367 	 -54.1737 	 
H 	 -80.779 	 -30.8016 	 -53.7909 	 
C 	 -80.599 	 -31.0088 	 -55.8491 	 
H 	 -79.4812 	 -31.0478 	 -55.7088 	 
H 	 -80.8321 	 -31.6064 	 -56.706 	 
C 	 -80.9682 	 -29.5943 	 -56.2287 	 
H 	 -80.5597 	 -29.3414 	 -57.2051 	 
H 	 -82.0678 	 -29.4973 	 -56.2466 	 
H 	 -80.5821 	 -28.8023 	 -55.5238 	 
S 	 -87.015 	 -29.0468 	 -53.2566 	 
C 	 -87.6722 	 -28.8595 	 -51.6208 	 
C 	 -87.0459 	 -29.6167 	 -50.7154 	 
C 	 -86.0244 	 -30.4389 	 -51.3276 	 
C 	 -85.878 	 -30.3079 	 -52.7067 	 
H 	 -87.3551 	 -29.66 	 -49.7468 	 
C 	 -85.0878 	 -31.1631 	 -50.3974 	 
H 	 -84.5036 	 -31.9163 	 -50.9111 	 
H 	 -85.6935 	 -31.8189 	 -49.7643 	 
C 	 -84.2605 	 -30.2743 	 -49.4585 	 
H 	 -84.7964 	 -29.8999 	 -48.6323 	 
H 	 -84.07 	 -29.4832 	 -50.1045 	 
C 	 -83.022 	 -30.9287 	 -48.8797 	 
H 	 -82.2226 	 -30.1151 	 -48.7575 	 
H 	 -82.5994 	 -31.6282 	 -49.6021 	 
H 	 -83.0356 	 -31.5048 	 -47.9404 	 
H 	 -83.1945 	 -33.0848 	 -55.7952 	 
H 	 -88.4868 	 -28.1954 	 -51.3728 	 
