34

S 	 -38.5104 	 6.89945 	 -2.24698 	 
C 	 -39.7906 	 5.8065 	 -2.78433 	 
C 	 -39.7634 	 4.58795 	 -2.10642 	 
C 	 -38.6304 	 4.56812 	 -1.15155 	 
C 	 -37.97 	 5.77965 	 -1.01397 	 
H 	 -38.2317 	 3.76408 	 -0.534315 	 
C 	 -40.5952 	 3.33605 	 -2.38018 	 
H 	 -41.3213 	 3.5521 	 -3.20287 	 
H 	 -41.2523 	 3.08081 	 -1.54719 	 
C 	 -39.8129 	 2.09617 	 -2.82689 	 
H 	 -39.2574 	 1.58903 	 -2.03331 	 
H 	 -40.5126 	 1.2254 	 -3.07704 	 
C 	 -38.7964 	 2.26643 	 -3.90684 	 
H 	 -38.445 	 1.38233 	 -4.37749 	 
H 	 -39.3339 	 2.79825 	 -4.69735 	 
H 	 -37.9765 	 2.94755 	 -3.69828 	 
S 	 -35.1516 	 5.54176 	 -0.911612 	 
C 	 -34.2995 	 5.64515 	 0.587141 	 
C 	 -35.2279 	 6.00515 	 1.61193 	 
C 	 -36.5656 	 6.24443 	 1.17242 	 
C 	 -36.753 	 5.95225 	 -0.213488 	 
H 	 -34.7251 	 6.13961 	 2.56635 	 
C 	 -37.6824 	 6.66481 	 2.09879 	 
H 	 -38.6786 	 6.72892 	 1.61926 	 
H 	 -37.512 	 7.72117 	 2.30999 	 
C 	 -37.8645 	 5.90099 	 3.46826 	 
H 	 -38.3704 	 6.48813 	 4.18201 	 
H 	 -36.9494 	 5.78083 	 3.89591 	 
C 	 -38.5926 	 4.52901 	 3.26169 	 
H 	 -38.1892 	 3.90344 	 2.44203 	 
H 	 -39.5871 	 4.70223 	 2.88771 	 
H 	 -38.6066 	 4.0645 	 4.22007 	 
H 	 -40.3638 	 5.82819 	 -3.71434 	 
H 	 -33.2365 	 5.58588 	 0.628041 	 
