34

S 	 -35.3953 	 3.49055 	 16.7704 	 
C 	 -34.5367 	 4.99583 	 17.2034 	 
C 	 -35.4036 	 6.05931 	 17.123 	 
C 	 -36.7588 	 5.66848 	 16.7461 	 
C 	 -36.8954 	 4.31029 	 16.5165 	 
H 	 -37.6037 	 6.29634 	 16.6965 	 
C 	 -34.9991 	 7.49264 	 17.1438 	 
H 	 -34.0998 	 7.582 	 17.8961 	 
H 	 -35.7749 	 8.10113 	 17.5801 	 
C 	 -34.4674 	 8.12414 	 15.8067 	 
H 	 -34.0276 	 9.10783 	 15.9529 	 
H 	 -33.6657 	 7.54621 	 15.3734 	 
C 	 -35.5093 	 8.41273 	 14.6826 	 
H 	 -36.3399 	 9.13025 	 14.8954 	 
H 	 -34.9572 	 8.78723 	 13.8601 	 
H 	 -35.9311 	 7.48796 	 14.3335 	 
S 	 -39.5561 	 3.75205 	 16.9092 	 
C 	 -40.4038 	 2.64716 	 15.8977 	 
C 	 -39.5846 	 2.17182 	 14.9109 	 
C 	 -38.2382 	 2.70434 	 14.9311 	 
C 	 -38.0958 	 3.59149 	 15.9866 	 
H 	 -39.9936 	 1.40555 	 14.2493 	 
C 	 -37.0738 	 2.28272 	 13.9759 	 
H 	 -36.5602 	 1.51238 	 14.5494 	 
H 	 -36.3851 	 3.11573 	 13.9612 	 
C 	 -37.4014 	 1.91383 	 12.5488 	 
H 	 -37.6507 	 2.88604 	 12.1369 	 
H 	 -38.2821 	 1.24232 	 12.4479 	 
C 	 -36.1839 	 1.32334 	 11.7817 	 
H 	 -35.3993 	 2.03373 	 11.7785 	 
H 	 -36.3168 	 1.04995 	 10.6636 	 
H 	 -35.8301 	 0.36799 	 12.2205 	 
H 	 -33.4542 	 5.15065 	 17.1779 	 
H 	 -41.4369 	 2.4251 	 16.0948 	 
