34

S 	 -117.53 	 23.9394 	 -115.767 	 
C 	 -118.134 	 23.9899 	 -117.483 	 
C 	 -118.782 	 25.172 	 -117.84 	 
C 	 -118.852 	 25.9823 	 -116.642 	 
C 	 -118.322 	 25.414 	 -115.478 	 
H 	 -119.571 	 26.8122 	 -116.492 	 
C 	 -119.31 	 25.5547 	 -119.162 	 
H 	 -118.566 	 25.2088 	 -119.876 	 
H 	 -119.338 	 26.6297 	 -119.226 	 
C 	 -120.683 	 25.141 	 -119.513 	 
H 	 -121.404 	 25.6851 	 -118.882 	 
H 	 -120.72 	 25.4558 	 -120.561 	 
C 	 -120.91 	 23.6825 	 -119.336 	 
H 	 -121.905 	 23.4342 	 -119.734 	 
H 	 -120.154 	 23.0808 	 -119.685 	 
H 	 -120.925 	 23.3834 	 -118.287 	 
S 	 -119.723 	 26.1011 	 -113.059 	 
C 	 -118.823 	 27.109 	 -111.893 	 
C 	 -117.523 	 27.3223 	 -112.291 	 
C 	 -117.231 	 26.7416 	 -113.567 	 
C 	 -118.31 	 26.1791 	 -114.196 	 
H 	 -116.867 	 27.88 	 -111.629 	 
C 	 -115.832 	 26.9021 	 -114.265 	 
H 	 -115.832 	 26.1417 	 -115.05 	 
H 	 -115.031 	 26.5044 	 -113.598 	 
C 	 -115.476 	 28.3677 	 -114.744 	 
H 	 -114.591 	 28.3039 	 -115.392 	 
H 	 -115.187 	 29.0242 	 -113.883 	 
C 	 -116.614 	 28.9439 	 -115.532 	 
H 	 -117.008 	 28.2815 	 -116.248 	 
H 	 -116.205 	 29.8574 	 -116.023 	 
H 	 -117.322 	 29.2908 	 -114.817 	 
H 	 -117.949 	 23.2216 	 -118.214 	 
H 	 -119.192 	 27.1017 	 -110.831 	 
