34

S 	 -30.3723 	 -36.9638 	 -91.8436 	 
C 	 -29.5254 	 -35.4365 	 -92.1361 	 
C 	 -30.0453 	 -34.3565 	 -91.4054 	 
C 	 -31.1703 	 -34.7875 	 -90.5669 	 
C 	 -31.4272 	 -36.1389 	 -90.6736 	 
H 	 -31.7873 	 -34.1499 	 -89.9376 	 
C 	 -29.5675 	 -32.9354 	 -91.5534 	 
H 	 -30.5118 	 -32.449 	 -91.8258 	 
H 	 -28.9071 	 -32.9034 	 -92.4478 	 
C 	 -28.8496 	 -32.23 	 -90.2796 	 
H 	 -28.9943 	 -31.101 	 -90.4246 	 
H 	 -29.4344 	 -32.5246 	 -89.4009 	 
C 	 -27.3762 	 -32.5625 	 -90.1832 	 
H 	 -27.1639 	 -33.6244 	 -90.3739 	 
H 	 -26.8052 	 -31.9984 	 -90.9026 	 
H 	 -27.0059 	 -32.3676 	 -89.2096 	 
S 	 -31.8564 	 -38.3449 	 -89.0197 	 
C 	 -33.3671 	 -38.4536 	 -88.2023 	 
C 	 -34.1871 	 -37.3863 	 -88.4185 	 
C 	 -33.6499 	 -36.4606 	 -89.3942 	 
C 	 -32.3721 	 -36.8159 	 -89.8203 	 
H 	 -35.0991 	 -37.3366 	 -87.8928 	 
C 	 -34.4088 	 -35.2599 	 -89.8226 	 
H 	 -34.0845 	 -34.3641 	 -89.3812 	 
H 	 -35.4419 	 -35.5155 	 -89.5013 	 
C 	 -34.7302 	 -34.9141 	 -91.3007 	 
H 	 -33.8594 	 -34.7463 	 -91.927 	 
H 	 -35.3803 	 -34.0466 	 -91.3989 	 
C 	 -35.5402 	 -36.0465 	 -92.0286 	 
H 	 -35.6033 	 -35.7653 	 -93.0769 	 
H 	 -36.6037 	 -36.0981 	 -91.7347 	 
H 	 -34.9409 	 -36.9802 	 -92.0616 	 
H 	 -28.7476 	 -35.31 	 -92.8842 	 
H 	 -33.7797 	 -39.2969 	 -87.5976 	 
