34

S 	 -38.6735 	 19.2078 	 27.1973 	 
C 	 -38.7923 	 17.4761 	 27.5645 	 
C 	 -39.5415 	 16.772 	 26.6606 	 
C 	 -39.9515 	 17.6642 	 25.5992 	 
C 	 -39.6363 	 18.9704 	 25.7567 	 
H 	 -40.4165 	 17.3201 	 24.704 	 
C 	 -39.7842 	 15.2956 	 26.5548 	 
H 	 -39.3284 	 14.9201 	 27.5217 	 
H 	 -39.1256 	 14.9083 	 25.8052 	 
C 	 -41.2674 	 14.9126 	 26.2676 	 
H 	 -41.8313 	 15.4241 	 26.9931 	 
H 	 -41.5133 	 15.3231 	 25.2448 	 
C 	 -41.533 	 13.4769 	 26.3621 	 
H 	 -42.5961 	 13.2238 	 26.3396 	 
H 	 -41.1385 	 13.1015 	 25.4467 	 
H 	 -41.025 	 12.9837 	 27.2422 	 
S 	 -41.5988 	 20.3783 	 24.4618 	 
C 	 -41.245 	 21.1724 	 22.966 	 
C 	 -39.893 	 21.1558 	 22.7084 	 
C 	 -39.1506 	 20.4786 	 23.7387 	 
C 	 -39.9445 	 19.9214 	 24.7106 	 
H 	 -39.4519 	 21.7003 	 21.8707 	 
C 	 -37.6376 	 20.3871 	 23.6674 	 
H 	 -37.444 	 19.9326 	 22.6658 	 
H 	 -37.296 	 19.728 	 24.4451 	 
C 	 -36.7695 	 21.6298 	 23.8438 	 
H 	 -37.1305 	 22.5237 	 23.3187 	 
H 	 -35.7471 	 21.6053 	 23.5321 	 
C 	 -36.7152 	 22.2769 	 25.2255 	 
H 	 -36.0126 	 23.0269 	 25.3134 	 
H 	 -36.3439 	 21.5119 	 25.9605 	 
H 	 -37.7308 	 22.6003 	 25.6284 	 
H 	 -38.3767 	 17.054 	 28.431 	 
H 	 -41.8326 	 21.882 	 22.5105 	 
