34

S 	 28.3772 	 -26.3941 	 -131.273 	 
C 	 26.6076 	 -26.3024 	 -130.953 	 
C 	 25.9955 	 -27.5939 	 -131.033 	 
C 	 27.0064 	 -28.592 	 -131.329 	 
C 	 28.3223 	 -28.1628 	 -131.425 	 
H 	 26.7466 	 -29.6028 	 -131.544 	 
C 	 24.5343 	 -27.8324 	 -130.927 	 
H 	 24.3899 	 -28.9203 	 -130.923 	 
H 	 24.0391 	 -27.4967 	 -131.857 	 
C 	 23.8659 	 -27.2468 	 -129.655 	 
H 	 24.3141 	 -27.8258 	 -128.82 	 
H 	 24.243 	 -26.2499 	 -129.462 	 
C 	 22.3485 	 -27.1875 	 -129.612 	 
H 	 21.8937 	 -26.5427 	 -128.806 	 
H 	 22.04 	 -26.6598 	 -130.587 	 
H 	 21.8923 	 -28.1213 	 -129.606 	 
S 	 30.7387 	 -28.3833 	 -132.792 	 
C 	 31.644 	 -29.8653 	 -132.617 	 
C 	 31.1013 	 -30.7217 	 -131.679 	 
C 	 29.8887 	 -30.2223 	 -131.121 	 
C 	 29.5254 	 -28.9778 	 -131.611 	 
H 	 31.7193 	 -31.6533 	 -131.52 	 
C 	 29.1171 	 -31.0699 	 -130.072 	 
H 	 28.3213 	 -30.4108 	 -129.656 	 
H 	 29.7345 	 -31.3073 	 -129.185 	 
C 	 28.4902 	 -32.3004 	 -130.705 	 
H 	 29.2421 	 -32.9862 	 -131.149 	 
H 	 27.8107 	 -32.1526 	 -131.633 	 
C 	 27.7258 	 -33.1389 	 -129.635 	 
H 	 28.2637 	 -33.1028 	 -128.674 	 
H 	 27.6664 	 -34.1327 	 -129.963 	 
H 	 26.7383 	 -32.7695 	 -129.426 	 
H 	 26.0347 	 -25.381 	 -130.79 	 
H 	 32.5838 	 -30.1016 	 -133.181 	 
