34

S 	 -109.742 	 57.6306 	 -100.861 	 
C 	 -111.229 	 57.2991 	 -100.076 	 
C 	 -111.372 	 57.9143 	 -98.8148 	 
C 	 -110.236 	 58.7218 	 -98.5201 	 
C 	 -109.329 	 58.7863 	 -99.574 	 
H 	 -110.04 	 59.317 	 -97.6279 	 
C 	 -112.595 	 57.8489 	 -97.8826 	 
H 	 -113.57 	 58.079 	 -98.4311 	 
H 	 -112.6 	 58.6663 	 -97.1584 	 
C 	 -112.821 	 56.488 	 -97.1278 	 
H 	 -111.918 	 56.0044 	 -96.8127 	 
H 	 -113.34 	 56.8778 	 -96.3038 	 
C 	 -113.695 	 55.4504 	 -97.9085 	 
H 	 -113.356 	 55.2566 	 -98.9443 	 
H 	 -113.909 	 54.5188 	 -97.3033 	 
H 	 -114.632 	 55.9499 	 -98.062 	 
S 	 -106.57 	 59.0043 	 -98.8629 	 
C 	 -105.815 	 60.5459 	 -99.0147 	 
C 	 -106.634 	 61.4916 	 -99.6116 	 
C 	 -107.965 	 60.9825 	 -99.8621 	 
C 	 -108.124 	 59.5896 	 -99.5926 	 
H 	 -106.318 	 62.5059 	 -99.8716 	 
C 	 -108.992 	 61.9612 	 -100.344 	 
H 	 -109.938 	 61.4892 	 -100.57 	 
H 	 -108.586 	 62.2855 	 -101.308 	 
C 	 -109.258 	 63.1844 	 -99.4394 	 
H 	 -108.424 	 63.8567 	 -99.1938 	 
H 	 -109.616 	 62.7333 	 -98.4889 	 
C 	 -110.333 	 64.1546 	 -99.8803 	 
H 	 -111.287 	 63.7222 	 -99.8302 	 
H 	 -110.276 	 64.3943 	 -100.933 	 
H 	 -110.449 	 65.1175 	 -99.3439 	 
H 	 -112.058 	 56.6337 	 -100.479 	 
H 	 -104.772 	 60.7409 	 -98.8101 	 
