34

S 	 28.9293 	 -6.02421 	 -118.103 	 
C 	 30.3534 	 -6.9234 	 -118.179 	 
C 	 30.8735 	 -7.25102 	 -116.955 	 
C 	 29.9904 	 -6.79838 	 -115.888 	 
C 	 28.8665 	 -6.17886 	 -116.319 	 
H 	 30.2797 	 -6.69618 	 -114.826 	 
C 	 32.2942 	 -7.82289 	 -116.694 	 
H 	 32.997 	 -7.041 	 -116.604 	 
H 	 32.5014 	 -8.34062 	 -117.671 	 
C 	 32.6913 	 -8.88402 	 -115.62 	 
H 	 33.7066 	 -8.98007 	 -115.807 	 
H 	 32.6415 	 -8.64373 	 -114.558 	 
C 	 32.026 	 -10.2368 	 -115.833 	 
H 	 32.2903 	 -10.6721 	 -116.834 	 
H 	 32.3698 	 -11.0253 	 -115.088 	 
H 	 30.9369 	 -10.1559 	 -115.756 	 
S 	 27.1247 	 -4.00915 	 -116.015 	 
C 	 25.8341 	 -4.25233 	 -114.908 	 
C 	 26.0454 	 -5.28527 	 -113.967 	 
C 	 27.3081 	 -5.97205 	 -114.269 	 
C 	 27.8124 	 -5.53965 	 -115.494 	 
H 	 25.3297 	 -5.55574 	 -113.149 	 
C 	 27.8785 	 -7.07913 	 -113.38 	 
H 	 28.6173 	 -7.58957 	 -113.969 	 
H 	 27.0909 	 -7.73078 	 -112.975 	 
C 	 28.5048 	 -6.548 	 -112.087 	 
H 	 27.7215 	 -6.20327 	 -111.394 	 
H 	 29.1493 	 -5.70148 	 -112.243 	 
C 	 29.3998 	 -7.59418 	 -111.359 	 
H 	 30.3113 	 -7.72438 	 -111.901 	 
H 	 28.9093 	 -8.52256 	 -111.282 	 
H 	 29.6296 	 -7.24654 	 -110.335 	 
H 	 30.954 	 -7.21942 	 -119.091 	 
H 	 24.993 	 -3.58689 	 -114.758 	 
