34

S 	 -100.605 	 6.4854 	 3.6909 	 
C 	 -101.16 	 7.20678 	 2.15075 	 
C 	 -100.586 	 6.65565 	 1.03061 	 
C 	 -99.6642 	 5.65191 	 1.40699 	 
C 	 -99.5364 	 5.46536 	 2.8405 	 
H 	 -99.1182 	 4.90696 	 0.858988 	 
C 	 -100.996 	 6.87642 	 -0.375756 	 
H 	 -100.091 	 6.77104 	 -0.902961 	 
H 	 -101.449 	 7.84363 	 -0.478403 	 
C 	 -102.075 	 5.89176 	 -0.867211 	 
H 	 -101.742 	 4.83827 	 -0.779373 	 
H 	 -102.933 	 6.09815 	 -0.18374 	 
C 	 -102.449 	 6.12124 	 -2.3722 	 
H 	 -102.824 	 5.1409 	 -2.78516 	 
H 	 -103.218 	 6.84921 	 -2.57997 	 
H 	 -101.497 	 6.29735 	 -2.94715 	 
S 	 -99.3339 	 3.61393 	 4.84927 	 
C 	 -97.8314 	 2.67692 	 4.85844 	 
C 	 -96.849 	 3.24672 	 4.10899 	 
C 	 -97.2701 	 4.32307 	 3.33312 	 
C 	 -98.687 	 4.48967 	 3.45459 	 
H 	 -95.8353 	 2.864 	 4.11341 	 
C 	 -96.4247 	 5.09998 	 2.39299 	 
H 	 -97.0343 	 5.96692 	 2.17812 	 
H 	 -96.4551 	 4.53055 	 1.45433 	 
C 	 -95.0301 	 5.49554 	 2.98495 	 
H 	 -94.443 	 5.96814 	 2.18693 	 
H 	 -94.505 	 4.62194 	 3.41668 	 
C 	 -95.1987 	 6.56185 	 4.13642 	 
H 	 -95.9225 	 7.36766 	 3.83211 	 
H 	 -94.2097 	 6.87556 	 4.31067 	 
H 	 -95.6452 	 6.15566 	 5.05672 	 
H 	 -101.953 	 7.87962 	 1.97011 	 
H 	 -97.7726 	 1.79885 	 5.58457 	 
