34

S 	 -29.9549 	 20.6347 	 5.30967 	 
C 	 -31.3705 	 21.5918 	 5.29158 	 
C 	 -32.5248 	 20.863 	 5.64526 	 
C 	 -32.2355 	 19.5269 	 6.02081 	 
C 	 -30.9266 	 19.2782 	 5.9182 	 
H 	 -33.0238 	 18.9247 	 6.43496 	 
C 	 -33.9476 	 21.4379 	 5.70996 	 
H 	 -34.6482 	 20.6311 	 5.97607 	 
H 	 -34.1462 	 21.688 	 4.66113 	 
C 	 -34.0691 	 22.6758 	 6.50785 	 
H 	 -33.8226 	 22.3287 	 7.54187 	 
H 	 -33.2512 	 23.3502 	 6.23754 	 
C 	 -35.4318 	 23.4103 	 6.40991 	 
H 	 -35.5561 	 23.793 	 5.36556 	 
H 	 -36.1728 	 22.5889 	 6.56732 	 
H 	 -35.7178 	 24.2247 	 7.08333 	 
S 	 -28.795 	 17.5807 	 5.22223 	 
C 	 -28.5919 	 16.1068 	 6.06658 	 
C 	 -29.7017 	 15.8906 	 6.8818 	 
C 	 -30.6699 	 16.9138 	 6.84905 	 
C 	 -30.2821 	 17.9771 	 6.11188 	 
H 	 -29.6864 	 15.0137 	 7.48553 	 
C 	 -31.8066 	 16.8558 	 7.76981 	 
H 	 -31.9959 	 17.8192 	 8.175 	 
H 	 -31.4829 	 16.434 	 8.70862 	 
C 	 -33.054 	 16.1525 	 7.31794 	 
H 	 -32.8994 	 15.0563 	 7.06042 	 
H 	 -33.4751 	 16.5886 	 6.37975 	 
C 	 -34.1061 	 16.2171 	 8.41792 	 
H 	 -35.0405 	 15.8502 	 8.04313 	 
H 	 -34.3447 	 17.1957 	 8.90171 	 
H 	 -33.8806 	 15.5725 	 9.30675 	 
H 	 -31.4216 	 22.6375 	 4.91096 	 
H 	 -27.9076 	 15.3586 	 5.84508 	 
