34

S 	 -107.53 	 35.4514 	 -12.4683 	 
C 	 -108.2 	 35.7454 	 -14.0378 	 
C 	 -107.201 	 35.8127 	 -15.0083 	 
C 	 -105.897 	 35.7648 	 -14.4116 	 
C 	 -105.9 	 35.7301 	 -13.0229 	 
H 	 -104.974 	 35.9332 	 -14.9412 	 
C 	 -107.425 	 35.9827 	 -16.4703 	 
H 	 -107.001 	 35.1794 	 -17.0954 	 
H 	 -106.781 	 36.843 	 -16.702 	 
C 	 -108.735 	 36.4501 	 -17.0752 	 
H 	 -109.463 	 35.6756 	 -16.7519 	 
H 	 -109.036 	 37.4647 	 -16.6843 	 
C 	 -108.761 	 36.4085 	 -18.6465 	 
H 	 -108.054 	 36.9833 	 -19.2287 	 
H 	 -108.51 	 35.3327 	 -18.9074 	 
H 	 -109.801 	 36.7393 	 -18.9386 	 
S 	 -104.998 	 37.1238 	 -10.8943 	 
C 	 -103.294 	 37.311 	 -10.5708 	 
C 	 -102.65 	 36.4247 	 -11.413 	 
C 	 -103.393 	 35.6288 	 -12.2703 	 
C 	 -104.738 	 35.9284 	 -12.1771 	 
H 	 -101.568 	 36.4799 	 -11.159 	 
C 	 -102.812 	 34.4958 	 -13.1228 	 
H 	 -102.385 	 34.9596 	 -14.0438 	 
H 	 -103.624 	 33.8133 	 -13.362 	 
C 	 -101.702 	 33.6735 	 -12.4118 	 
H 	 -102.065 	 33.0717 	 -11.5654 	 
H 	 -101 	 34.4334 	 -12.0575 	 
C 	 -101.047 	 32.7449 	 -13.4655 	 
H 	 -100.333 	 32.1388 	 -12.911 	 
H 	 -100.405 	 33.2745 	 -14.2105 	 
H 	 -101.81 	 32.2603 	 -14.0932 	 
H 	 -109.257 	 35.772 	 -14.2977 	 
H 	 -102.846 	 37.8356 	 -9.7162 	 
