34

S 	 26.7766 	 -3.25957 	 -108.041 	 
C 	 27.8639 	 -2.78798 	 -109.342 	 
C 	 27.2466 	 -2.61839 	 -110.587 	 
C 	 25.8587 	 -2.74398 	 -110.416 	 
C 	 25.4715 	 -3.24688 	 -109.188 	 
H 	 25.2012 	 -2.62566 	 -111.218 	 
C 	 28.0272 	 -2.44724 	 -111.943 	 
H 	 28.4103 	 -1.44691 	 -112.038 	 
H 	 27.3511 	 -2.68947 	 -112.751 	 
C 	 29.2161 	 -3.4525 	 -112.166 	 
H 	 29.8438 	 -3.31451 	 -111.339 	 
H 	 28.8449 	 -4.4595 	 -112.339 	 
C 	 29.9999 	 -2.99172 	 -113.482 	 
H 	 30.6564 	 -3.75626 	 -113.876 	 
H 	 29.3524 	 -2.87258 	 -114.374 	 
H 	 30.5894 	 -2.05271 	 -113.298 	 
S 	 23.6617 	 -3.05378 	 -107.224 	 
C 	 21.988 	 -3.55849 	 -107.506 	 
C 	 21.8003 	 -4.13389 	 -108.693 	 
C 	 23.0411 	 -4.09796 	 -109.485 	 
C 	 24.1445 	 -3.58229 	 -108.831 	 
H 	 20.7377 	 -4.47922 	 -108.82 	 
C 	 23.1025 	 -4.79667 	 -110.821 	 
H 	 24.0689 	 -5.26078 	 -110.739 	 
H 	 23.2858 	 -4.12145 	 -111.716 	 
C 	 21.9115 	 -5.81169 	 -111.152 	 
H 	 20.9959 	 -5.20189 	 -111.237 	 
H 	 21.6255 	 -6.48422 	 -110.32 	 
C 	 22.0781 	 -6.68963 	 -112.397 	 
H 	 22.3812 	 -6.08113 	 -113.259 	 
H 	 21.1622 	 -7.33 	 -112.515 	 
H 	 22.9061 	 -7.3279 	 -112.279 	 
H 	 28.8014 	 -2.40258 	 -109.092 	 
H 	 21.0936 	 -3.4644 	 -106.834 	 
