34

S 	 -87.2426 	 -6.32767 	 -114.011 	 
C 	 -88.3486 	 -7.64234 	 -114.111 	 
C 	 -89.6502 	 -7.27462 	 -114.002 	 
C 	 -89.7926 	 -5.84683 	 -114.067 	 
C 	 -88.5503 	 -5.1688 	 -114.234 	 
H 	 -90.7306 	 -5.20663 	 -113.977 	 
C 	 -90.9092 	 -8.21574 	 -114.073 	 
H 	 -90.6286 	 -9.16696 	 -113.687 	 
H 	 -91.0087 	 -8.57898 	 -115.044 	 
C 	 -92.2099 	 -7.79212 	 -113.472 	 
H 	 -92.6234 	 -6.97548 	 -114.042 	 
H 	 -92.8752 	 -8.61606 	 -113.562 	 
C 	 -92.2411 	 -7.3509 	 -111.926 	 
H 	 -93.241 	 -7.02542 	 -111.629 	 
H 	 -92.0102 	 -8.15048 	 -111.253 	 
H 	 -91.532 	 -6.64783 	 -111.687 	 
S 	 -88.1205 	 -2.98643 	 -115.888 	 
C 	 -88.2955 	 -1.35738 	 -115.321 	 
C 	 -88.425 	 -1.36807 	 -113.959 	 
C 	 -88.6268 	 -2.6834 	 -113.376 	 
C 	 -88.3984 	 -3.68279 	 -114.336 	 
H 	 -88.587 	 -0.393934 	 -113.447 	 
C 	 -88.7344 	 -2.89318 	 -111.88 	 
H 	 -89.1134 	 -3.91552 	 -111.798 	 
H 	 -89.625 	 -2.3066 	 -111.541 	 
C 	 -87.5036 	 -2.73141 	 -110.977 	 
H 	 -86.8604 	 -3.60281 	 -111.233 	 
H 	 -87.8568 	 -2.71462 	 -109.971 	 
C 	 -86.7354 	 -1.45625 	 -111.103 	 
H 	 -86.7844 	 -0.968841 	 -111.979 	 
H 	 -85.7558 	 -1.47832 	 -110.809 	 
H 	 -87.2572 	 -0.783954 	 -110.445 	 
H 	 -88.0374 	 -8.65678 	 -113.957 	 
H 	 -88.4137 	 -0.498426 	 -116.005 	 
