34

S 	 -42.4221 	 -8.96808 	 8.11823 	 
C 	 -40.9962 	 -8.41043 	 7.31083 	 
C 	 -40.2952 	 -7.50436 	 8.0729 	 
C 	 -41.0735 	 -7.00076 	 9.12387 	 
C 	 -42.2896 	 -7.62581 	 9.2735 	 
H 	 -40.6512 	 -6.2411 	 9.8084 	 
C 	 -38.8301 	 -7.07275 	 7.83491 	 
H 	 -38.0662 	 -7.86984 	 7.94955 	 
H 	 -38.6064 	 -6.43796 	 8.64463 	 
C 	 -38.5361 	 -6.21028 	 6.61625 	 
H 	 -37.4753 	 -6.02946 	 6.4651 	 
H 	 -38.8787 	 -6.78379 	 5.77807 	 
C 	 -39.335 	 -4.88999 	 6.52047 	 
H 	 -39.5512 	 -4.57859 	 5.50458 	 
H 	 -40.3805 	 -4.85191 	 6.84502 	 
H 	 -38.7704 	 -4.01756 	 6.88233 	 
S 	 -43.1956 	 -8.73008 	 11.7037 	 
C 	 -44.6968 	 -8.25181 	 12.3226 	 
C 	 -45.0707 	 -7.08395 	 11.7156 	 
C 	 -44.3341 	 -6.68549 	 10.5669 	 
C 	 -43.2626 	 -7.57733 	 10.3483 	 
H 	 -46.0394 	 -6.63603 	 12.0276 	 
C 	 -44.6884 	 -5.45673 	 9.75731 	 
H 	 -45.7227 	 -5.26978 	 9.99778 	 
H 	 -44.6595 	 -5.73209 	 8.72969 	 
C 	 -43.9494 	 -4.14364 	 10.1324 	 
H 	 -42.8726 	 -4.32782 	 10.1483 	 
H 	 -44.1434 	 -3.85981 	 11.2149 	 
C 	 -44.4059 	 -3.04175 	 9.1664 	 
H 	 -44.0826 	 -2.05334 	 9.4922 	 
H 	 -45.5107 	 -3.18611 	 9.08889 	 
H 	 -43.9044 	 -3.29251 	 8.27123 	 
H 	 -40.5239 	 -8.87709 	 6.44059 	 
H 	 -45.0665 	 -8.64649 	 13.2048 	 
