34

S 	 -39.3002 	 -12.6137 	 5.92998 	 
C 	 -39.9789 	 -13.1091 	 7.47836 	 
C 	 -40.7532 	 -12.1001 	 8.06815 	 
C 	 -40.7234 	 -10.9209 	 7.19674 	 
C 	 -40.2268 	 -11.1023 	 5.92728 	 
H 	 -41.1769 	 -9.99516 	 7.40226 	 
C 	 -41.5082 	 -12.039 	 9.39987 	 
H 	 -41.9569 	 -13.0646 	 9.47451 	 
H 	 -42.3011 	 -11.3676 	 9.53995 	 
C 	 -40.6298 	 -11.77 	 10.5781 	 
H 	 -40.3121 	 -10.7579 	 10.414 	 
H 	 -41.1222 	 -11.7776 	 11.5486 	 
C 	 -39.3896 	 -12.6914 	 10.7069 	 
H 	 -38.6618 	 -12.5344 	 9.93582 	 
H 	 -38.8667 	 -12.3761 	 11.6714 	 
H 	 -39.5961 	 -13.7731 	 10.6807 	 
S 	 -39.0873 	 -10.3382 	 3.44546 	 
C 	 -39.8551 	 -9.07187 	 2.59061 	 
C 	 -41.112 	 -8.73918 	 3.01183 	 
C 	 -41.3677 	 -9.37455 	 4.26753 	 
C 	 -40.3271 	 -10.1871 	 4.72588 	 
H 	 -41.7309 	 -8.15041 	 2.43799 	 
C 	 -42.6698 	 -9.01692 	 5.01907 	 
H 	 -42.8267 	 -9.92825 	 5.56879 	 
H 	 -43.4881 	 -8.90763 	 4.34052 	 
C 	 -42.4936 	 -7.85065 	 5.96356 	 
H 	 -42.3233 	 -6.8869 	 5.36511 	 
H 	 -41.6062 	 -8.09173 	 6.47432 	 
C 	 -43.5932 	 -7.62362 	 7.04298 	 
H 	 -43.8092 	 -8.42277 	 7.65066 	 
H 	 -44.5098 	 -7.33729 	 6.66663 	 
H 	 -43.294 	 -6.86759 	 7.74353 	 
H 	 -39.7546 	 -14.0478 	 7.86392 	 
H 	 -39.4054 	 -8.80338 	 1.72144 	 
