34

S 	 -39.7946 	 -49.3103 	 -72.5597 	 
C 	 -40.8763 	 -48.5819 	 -73.7508 	 
C 	 -40.4879 	 -48.7071 	 -75.0186 	 
C 	 -39.284 	 -49.4982 	 -75.0473 	 
C 	 -38.7982 	 -49.9072 	 -73.8431 	 
H 	 -38.765 	 -49.7197 	 -75.9829 	 
C 	 -41.1242 	 -48.1635 	 -76.276 	 
H 	 -42.1372 	 -47.8895 	 -76.0415 	 
H 	 -41.1399 	 -48.8911 	 -77.0564 	 
C 	 -40.3142 	 -46.9875 	 -76.7286 	 
H 	 -39.3766 	 -47.3815 	 -77.0251 	 
H 	 -40.7539 	 -46.5732 	 -77.6566 	 
C 	 -40.0788 	 -45.9322 	 -75.6678 	 
H 	 -39.3471 	 -46.1834 	 -74.8743 	 
H 	 -39.4847 	 -45.0999 	 -76.1827 	 
H 	 -40.9268 	 -45.4962 	 -75.1855 	 
S 	 -37.6216 	 -52.392 	 -73.3939 	 
C 	 -35.9486 	 -52.4622 	 -72.9468 	 
C 	 -35.2954 	 -51.2602 	 -73.2228 	 
C 	 -36.2406 	 -50.2178 	 -73.5549 	 
C 	 -37.5643 	 -50.6439 	 -73.5709 	 
H 	 -34.2088 	 -51.3099 	 -73.2008 	 
C 	 -35.7469 	 -48.7769 	 -73.7994 	 
H 	 -35.1458 	 -48.3897 	 -72.9504 	 
H 	 -36.6521 	 -48.1525 	 -73.8836 	 
C 	 -34.9179 	 -48.6782 	 -75.0637 	 
H 	 -34.2468 	 -49.549 	 -75.2448 	 
H 	 -34.2861 	 -47.8156 	 -74.8911 	 
C 	 -35.8118 	 -48.2226 	 -76.2619 	 
H 	 -35.1625 	 -48.292 	 -77.1769 	 
H 	 -35.9809 	 -47.1723 	 -76.0918 	 
H 	 -36.6871 	 -48.8742 	 -76.4263 	 
H 	 -41.6874 	 -48.0216 	 -73.5122 	 
H 	 -35.3796 	 -53.3994 	 -72.8378 	 
