34

S 	 -49.5736 	 5.44784 	 -18.0107 	 
C 	 -49.965 	 3.80869 	 -18.5037 	 
C 	 -50.5218 	 3.09825 	 -17.4817 	 
C 	 -50.9043 	 3.91061 	 -16.3532 	 
C 	 -50.5653 	 5.25154 	 -16.5029 	 
H 	 -51.3995 	 3.60538 	 -15.4538 	 
C 	 -50.9397 	 1.68019 	 -17.5779 	 
H 	 -51.4771 	 1.63972 	 -18.604 	 
H 	 -51.7169 	 1.45701 	 -16.8617 	 
C 	 -49.8113 	 0.589228 	 -17.5377 	 
H 	 -50.3123 	 -0.346471 	 -17.7433 	 
H 	 -49.1496 	 0.774102 	 -18.3733 	 
C 	 -48.938 	 0.452085 	 -16.2985 	 
H 	 -48.1388 	 -0.259407 	 -16.3564 	 
H 	 -48.5705 	 1.52791 	 -16.0502 	 
H 	 -49.5524 	 0.102618 	 -15.4437 	 
S 	 -51.6728 	 7.73915 	 -15.9435 	 
C 	 -51.4812 	 8.5063 	 -14.4093 	 
C 	 -50.5555 	 7.75787 	 -13.7018 	 
C 	 -50.0405 	 6.58628 	 -14.3597 	 
C 	 -50.6512 	 6.38184 	 -15.5811 	 
H 	 -50.1217 	 8.17009 	 -12.7444 	 
C 	 -48.9106 	 5.75629 	 -13.7903 	 
H 	 -48.9825 	 4.67469 	 -14.2115 	 
H 	 -49.0764 	 5.50656 	 -12.7803 	 
C 	 -47.4698 	 6.37388 	 -14.0025 	 
H 	 -47.1308 	 6.22249 	 -14.993 	 
H 	 -46.8879 	 5.74269 	 -13.3867 	 
C 	 -47.3549 	 7.78425 	 -13.4663 	 
H 	 -47.6397 	 7.7723 	 -12.3986 	 
H 	 -48.0694 	 8.47621 	 -14.0165 	 
H 	 -46.3673 	 8.27907 	 -13.6102 	 
H 	 -49.9512 	 3.50455 	 -19.5204 	 
H 	 -52.132 	 9.2504 	 -13.9621 	 
