34

S 	 -121.532 	 63.8305 	 -52.1036 	 
C 	 -120.346 	 63.4584 	 -50.8842 	 
C 	 -120.983 	 63.411 	 -49.6354 	 
C 	 -122.388 	 63.5027 	 -49.7191 	 
C 	 -122.846 	 63.6383 	 -51.0087 	 
H 	 -123.034 	 63.4719 	 -48.8592 	 
C 	 -120.396 	 63.3842 	 -48.2131 	 
H 	 -119.547 	 62.6604 	 -48.3322 	 
H 	 -121.03 	 62.9739 	 -47.4438 	 
C 	 -119.856 	 64.6864 	 -47.5778 	 
H 	 -119.702 	 64.3822 	 -46.5248 	 
H 	 -118.882 	 65.0562 	 -48.1322 	 
C 	 -120.901 	 65.9105 	 -47.8237 	 
H 	 -120.726 	 66.3549 	 -48.8416 	 
H 	 -121.962 	 65.6073 	 -47.6387 	 
H 	 -120.509 	 66.6842 	 -47.1424 	 
S 	 -124.672 	 64.9804 	 -52.4689 	 
C 	 -126.41 	 64.6143 	 -52.361 	 
C 	 -126.649 	 63.6094 	 -51.4551 	 
C 	 -125.433 	 63.0802 	 -50.8707 	 
C 	 -124.264 	 63.6676 	 -51.4037 	 
H 	 -127.663 	 63.1981 	 -51.1961 	 
C 	 -125.434 	 61.9836 	 -49.7904 	 
H 	 -124.406 	 61.696 	 -49.641 	 
H 	 -125.855 	 61.0489 	 -50.1667 	 
C 	 -126.193 	 62.3212 	 -48.5068 	 
H 	 -127.137 	 62.7517 	 -48.7673 	 
H 	 -125.647 	 63.1601 	 -48.0121 	 
C 	 -126.452 	 61.0912 	 -47.5683 	 
H 	 -127.086 	 60.5054 	 -48.17 	 
H 	 -127.072 	 61.2224 	 -46.6048 	 
H 	 -125.677 	 60.4575 	 -47.3283 	 
H 	 -119.35 	 63.5803 	 -51.0328 	 
H 	 -127.196 	 65.2603 	 -52.8563 	 
