34

S 	 40.7788 	 -25.6928 	 -122.093 	 
C 	 39.774 	 -24.2833 	 -122.193 	 
C 	 38.5206 	 -24.5287 	 -122.717 	 
C 	 38.4493 	 -25.8944 	 -123.184 	 
C 	 39.5645 	 -26.616 	 -122.968 	 
H 	 37.633 	 -26.2995 	 -123.709 	 
C 	 37.4311 	 -23.4875 	 -123.107 	 
H 	 37.3685 	 -22.6973 	 -122.401 	 
H 	 36.5167 	 -24.0014 	 -122.956 	 
C 	 37.3847 	 -23.0584 	 -124.567 	 
H 	 38.3572 	 -22.7103 	 -124.882 	 
H 	 37.1924 	 -23.9931 	 -125.15 	 
C 	 36.341 	 -21.9715 	 -124.874 	 
H 	 36.5865 	 -20.9419 	 -124.484 	 
H 	 36.2615 	 -21.8388 	 -125.947 	 
H 	 35.353 	 -22.343 	 -124.552 	 
S 	 39.7873 	 -29.1276 	 -121.74 	 
C 	 39.4756 	 -30.5017 	 -122.695 	 
C 	 39.2088 	 -30.1782 	 -124.031 	 
C 	 39.1599 	 -28.7848 	 -124.247 	 
C 	 39.4429 	 -28.0688 	 -123.092 	 
H 	 39.119 	 -30.915 	 -124.806 	 
C 	 38.8381 	 -28.2979 	 -125.629 	 
H 	 37.9236 	 -27.7804 	 -125.568 	 
H 	 38.6616 	 -29.0659 	 -126.383 	 
C 	 39.9375 	 -27.4832 	 -126.269 	 
H 	 40.9527 	 -27.9042 	 -126.217 	 
H 	 40.0627 	 -26.5599 	 -125.57 	 
C 	 39.5688 	 -26.955 	 -127.648 	 
H 	 39.3396 	 -27.7065 	 -128.413 	 
H 	 40.2664 	 -26.2866 	 -128.126 	 
H 	 38.7013 	 -26.2931 	 -127.508 	 
H 	 40.0174 	 -23.266 	 -121.962 	 
H 	 39.5669 	 -31.4745 	 -122.356 	 
