34

S 	 46.6377 	 -21.7655 	 -113.159 	 
C 	 47.8724 	 -22.8636 	 -113.792 	 
C 	 47.4967 	 -24.2127 	 -113.617 	 
C 	 46.2087 	 -24.3335 	 -112.994 	 
C 	 45.5674 	 -23.0845 	 -112.89 	 
H 	 45.6087 	 -25.1834 	 -112.686 	 
C 	 48.1688 	 -25.4145 	 -114.068 	 
H 	 47.4723 	 -26.2287 	 -114.22 	 
H 	 48.77 	 -25.7088 	 -113.237 	 
C 	 48.9968 	 -25.2305 	 -115.364 	 
H 	 48.4276 	 -24.6154 	 -115.885 	 
H 	 49.8885 	 -24.7121 	 -115.195 	 
C 	 49.0677 	 -26.4992 	 -116.192 	 
H 	 49.561 	 -27.3003 	 -115.637 	 
H 	 48.0794 	 -26.8578 	 -116.557 	 
H 	 49.6836 	 -26.3463 	 -117.122 	 
S 	 43.8 	 -21.5773 	 -111.362 	 
C 	 42.1589 	 -22.0242 	 -111.316 	 
C 	 41.9066 	 -23.2124 	 -111.96 	 
C 	 43.048 	 -23.7374 	 -112.606 	 
C 	 44.1435 	 -22.9231 	 -112.415 	 
H 	 40.9555 	 -23.7384 	 -111.826 	 
C 	 42.9123 	 -24.7299 	 -113.739 	 
H 	 43.7044 	 -24.5494 	 -114.435 	 
H 	 42.0377 	 -24.5536 	 -114.372 	 
C 	 42.8176 	 -26.1706 	 -113.265 	 
H 	 41.8701 	 -26.3664 	 -112.759 	 
H 	 43.5298 	 -26.3987 	 -112.495 	 
C 	 43.0779 	 -27.2214 	 -114.293 	 
H 	 42.7307 	 -28.2106 	 -113.926 	 
H 	 44.1318 	 -27.2176 	 -114.429 	 
H 	 42.6831 	 -26.9145 	 -115.247 	 
H 	 48.6533 	 -22.4983 	 -114.372 	 
H 	 41.5573 	 -21.4937 	 -110.596 	 
