34

S 	 -97.1343 	 -26.8596 	 -64.3233 	 
C 	 -97.6603 	 -25.1482 	 -64.2374 	 
C 	 -96.9224 	 -24.393 	 -63.4104 	 
C 	 -96.0021 	 -25.1846 	 -62.7151 	 
C 	 -96.0389 	 -26.5561 	 -63.0603 	 
H 	 -95.539 	 -24.8648 	 -61.9114 	 
C 	 -97.1636 	 -22.9333 	 -63.0948 	 
H 	 -96.8798 	 -22.7037 	 -62.0552 	 
H 	 -98.2212 	 -22.718 	 -63.1277 	 
C 	 -96.3655 	 -21.8725 	 -64.0715 	 
H 	 -96.0662 	 -21.0081 	 -63.5175 	 
H 	 -95.4934 	 -22.448 	 -64.3136 	 
C 	 -97.1001 	 -21.6006 	 -65.374 	 
H 	 -98.0913 	 -21.2257 	 -65.1766 	 
H 	 -96.5859 	 -20.7924 	 -65.9727 	 
H 	 -97.1895 	 -22.4566 	 -66.0201 	 
S 	 -94.2197 	 -28.5951 	 -63.4431 	 
C 	 -94.1662 	 -29.9663 	 -62.3101 	 
C 	 -94.7253 	 -29.4155 	 -61.1335 	 
C 	 -95.2193 	 -28.0785 	 -61.181 	 
C 	 -95.3337 	 -27.6727 	 -62.4911 	 
H 	 -94.8366 	 -29.9725 	 -60.1534 	 
C 	 -95.9314 	 -27.442 	 -60.0622 	 
H 	 -96.4163 	 -28.3081 	 -59.5194 	 
H 	 -96.8199 	 -26.959 	 -60.5698 	 
C 	 -95.0466 	 -26.4691 	 -59.2734 	 
H 	 -94.3907 	 -25.8482 	 -59.9143 	 
H 	 -94.3735 	 -26.9138 	 -58.5147 	 
C 	 -95.91 	 -25.4388 	 -58.5899 	 
H 	 -95.3065 	 -24.7599 	 -58.0528 	 
H 	 -96.6013 	 -25.8842 	 -57.8641 	 
H 	 -96.526 	 -24.8442 	 -59.315 	 
H 	 -98.492 	 -24.7916 	 -64.8539 	 
H 	 -93.7349 	 -30.9582 	 -62.5206 	 
