34

S 	 -66.5045 	 9.54588 	 -75.4047 	 
C 	 -67.1242 	 8.96514 	 -73.7994 	 
C 	 -68.3651 	 8.41771 	 -73.9764 	 
C 	 -68.8173 	 8.52759 	 -75.3453 	 
C 	 -67.9866 	 9.21776 	 -76.2498 	 
H 	 -69.8006 	 8.10502 	 -75.6529 	 
C 	 -69.2354 	 7.79358 	 -72.9004 	 
H 	 -70.1156 	 8.43991 	 -72.718 	 
H 	 -68.8488 	 7.69717 	 -71.8235 	 
C 	 -69.8325 	 6.41349 	 -73.2719 	 
H 	 -70.7498 	 6.18658 	 -72.6628 	 
H 	 -70.2667 	 6.49593 	 -74.2338 	 
C 	 -68.7636 	 5.20743 	 -73.2349 	 
H 	 -68.4094 	 4.8366 	 -74.2344 	 
H 	 -67.9731 	 5.3935 	 -72.5636 	 
H 	 -69.2589 	 4.41684 	 -72.6798 	 
S 	 -67.7582 	 11.1162 	 -78.1907 	 
C 	 -68.5211 	 10.8706 	 -79.7493 	 
C 	 -69.1161 	 9.63343 	 -79.8617 	 
C 	 -69.1549 	 8.90359 	 -78.6692 	 
C 	 -68.2989 	 9.52662 	 -77.6575 	 
H 	 -69.6493 	 9.48058 	 -80.7555 	 
C 	 -69.8229 	 7.60406 	 -78.4727 	 
H 	 -69.1993 	 7.02864 	 -77.8274 	 
H 	 -69.7574 	 7.07242 	 -79.4195 	 
C 	 -71.2944 	 7.62119 	 -78.1527 	 
H 	 -71.9196 	 8.03583 	 -78.9694 	 
H 	 -71.4263 	 8.43313 	 -77.3851 	 
C 	 -71.9204 	 6.30313 	 -77.5906 	 
H 	 -71.396 	 5.91522 	 -76.7481 	 
H 	 -71.77 	 5.49426 	 -78.3799 	 
H 	 -72.975 	 6.32119 	 -77.3191 	 
H 	 -66.5233 	 8.86482 	 -72.9176 	 
H 	 -68.6143 	 11.5499 	 -80.6077 	 
