34

S 	 -99.6858 	 17.7662 	 -123.756 	 
C 	 -98.827 	 18.3661 	 -122.361 	 
C 	 -99.3073 	 17.7815 	 -121.206 	 
C 	 -100.406 	 16.935 	 -121.394 	 
C 	 -100.81 	 16.9439 	 -122.749 	 
H 	 -101.067 	 16.4734 	 -120.627 	 
C 	 -98.6618 	 17.9936 	 -119.86 	 
H 	 -97.9029 	 18.8048 	 -119.894 	 
H 	 -98.0173 	 17.1595 	 -119.636 	 
C 	 -99.5553 	 18.4003 	 -118.755 	 
H 	 -100.248 	 19.1624 	 -119.119 	 
H 	 -100.209 	 17.5412 	 -118.488 	 
C 	 -98.9202 	 18.9969 	 -117.449 	 
H 	 -98.7024 	 20.0575 	 -117.713 	 
H 	 -99.4948 	 19.0974 	 -116.549 	 
H 	 -97.9925 	 18.5264 	 -117.13 	 
S 	 -103.264 	 17.2833 	 -124.077 	 
C 	 -104.369 	 15.9074 	 -124.24 	 
C 	 -103.619 	 14.7931 	 -123.962 	 
C 	 -102.343 	 14.9611 	 -123.389 	 
C 	 -101.958 	 16.3047 	 -123.364 	 
H 	 -103.989 	 13.7993 	 -124.229 	 
C 	 -101.433 	 13.8112 	 -123.059 	 
H 	 -100.672 	 14.1965 	 -122.362 	 
H 	 -100.907 	 13.6492 	 -124.005 	 
C 	 -102.001 	 12.4706 	 -122.533 	 
H 	 -102.889 	 12.147 	 -123.044 	 
H 	 -102.33 	 12.5837 	 -121.46 	 
C 	 -100.963 	 11.3249 	 -122.763 	 
H 	 -100.039 	 11.569 	 -122.291 	 
H 	 -100.915 	 10.8786 	 -123.824 	 
H 	 -101.198 	 10.456 	 -122.243 	 
H 	 -97.983 	 19.0658 	 -122.203 	 
H 	 -105.416 	 15.9531 	 -124.579 	 
