34

S 	 -102.57 	 65.866 	 -10.1659 	 
C 	 -101.915 	 66.8546 	 -8.95401 	 
C 	 -102.46 	 66.5167 	 -7.73259 	 
C 	 -103.696 	 65.7899 	 -7.82901 	 
C 	 -103.942 	 65.414 	 -9.12706 	 
H 	 -104.379 	 65.5798 	 -6.97788 	 
C 	 -102.062 	 67.1585 	 -6.42012 	 
H 	 -102.702 	 67.9685 	 -6.20118 	 
H 	 -101.072 	 67.5895 	 -6.57164 	 
C 	 -101.918 	 66.1732 	 -5.2425 	 
H 	 -102.835 	 65.5549 	 -5.10884 	 
H 	 -100.992 	 65.5488 	 -5.39124 	 
C 	 -101.676 	 66.8216 	 -3.92974 	 
H 	 -100.758 	 67.4034 	 -3.8428 	 
H 	 -102.303 	 67.6848 	 -3.76016 	 
H 	 -101.548 	 66.0942 	 -3.15503 	 
S 	 -104.638 	 63.3105 	 -10.6876 	 
C 	 -106.369 	 62.9997 	 -11.0541 	 
C 	 -107.137 	 63.7336 	 -10.182 	 
C 	 -106.422 	 64.7988 	 -9.40932 	 
C 	 -105.066 	 64.7214 	 -9.64173 	 
H 	 -108.21 	 63.5511 	 -10.1777 	 
C 	 -107.106 	 65.741 	 -8.44196 	 
H 	 -106.317 	 66.1621 	 -7.83523 	 
H 	 -107.681 	 65.1841 	 -7.66235 	 
C 	 -107.859 	 66.9226 	 -9.0367 	 
H 	 -108.129 	 67.5641 	 -8.23681 	 
H 	 -108.751 	 66.6986 	 -9.55446 	 
C 	 -106.991 	 67.7504 	 -10.0238 	 
H 	 -107.55 	 68.7244 	 -10.119 	 
H 	 -106.855 	 67.3214 	 -11.0084 	 
H 	 -106.003 	 67.9043 	 -9.61112 	 
H 	 -100.934 	 67.3375 	 -9.13987 	 
H 	 -106.653 	 62.1385 	 -11.5557 	 
