34

S 	 -118.318 	 46.819 	 -116.062 	 
C 	 -117.309 	 45.432 	 -115.742 	 
C 	 -116.184 	 45.7901 	 -115.085 	 
C 	 -116.115 	 47.1541 	 -114.767 	 
C 	 -117.201 	 47.8465 	 -115.22 	 
H 	 -115.366 	 47.6586 	 -114.162 	 
C 	 -115.04 	 44.8624 	 -114.868 	 
H 	 -115.385 	 43.8251 	 -114.706 	 
H 	 -114.669 	 45.1625 	 -113.885 	 
C 	 -113.964 	 44.8204 	 -115.925 	 
H 	 -113.563 	 45.7938 	 -116.222 	 
H 	 -113.098 	 44.3036 	 -115.527 	 
C 	 -114.381 	 44.0968 	 -117.144 	 
H 	 -113.576 	 44.1234 	 -117.841 	 
H 	 -114.672 	 43.031 	 -117.043 	 
H 	 -115.202 	 44.5374 	 -117.583 	 
S 	 -116.198 	 50.4139 	 -115.125 	 
C 	 -117.031 	 51.6533 	 -114.197 	 
C 	 -118.25 	 51.1391 	 -113.676 	 
C 	 -118.443 	 49.7426 	 -113.952 	 
C 	 -117.439 	 49.1998 	 -114.767 	 
H 	 -119.032 	 51.6924 	 -113.17 	 
C 	 -119.673 	 49.0702 	 -113.398 	 
H 	 -120.112 	 48.4105 	 -114.141 	 
H 	 -120.46 	 49.834 	 -113.369 	 
C 	 -119.599 	 48.3932 	 -111.986 	 
H 	 -120.571 	 48.416 	 -111.479 	 
H 	 -119.057 	 49.0597 	 -111.389 	 
C 	 -119.202 	 46.9157 	 -112.016 	 
H 	 -118.191 	 46.7651 	 -112.119 	 
H 	 -119.921 	 46.3486 	 -112.639 	 
H 	 -119.352 	 46.5924 	 -110.989 	 
H 	 -117.583 	 44.4005 	 -115.942 	 
H 	 -116.765 	 52.685 	 -114.11 	 
