34

S 	 -103.413 	 37.8954 	 -23.9351 	 
C 	 -103.135 	 36.2688 	 -24.353 	 
C 	 -103.87 	 35.4154 	 -23.5481 	 
C 	 -104.885 	 36.1616 	 -22.8623 	 
C 	 -104.918 	 37.5344 	 -23.1483 	 
H 	 -105.624 	 35.6201 	 -22.1672 	 
C 	 -103.678 	 33.9287 	 -23.4078 	 
H 	 -103.25 	 33.5464 	 -24.2925 	 
H 	 -104.658 	 33.4536 	 -23.3609 	 
C 	 -102.783 	 33.5446 	 -22.1628 	 
H 	 -102.839 	 32.4649 	 -22.0695 	 
H 	 -101.798 	 33.7216 	 -22.4683 	 
C 	 -103.215 	 34.1083 	 -20.8148 	 
H 	 -102.981 	 35.1759 	 -20.7614 	 
H 	 -104.277 	 33.9766 	 -20.7169 	 
H 	 -102.87 	 33.5524 	 -19.9498 	 
S 	 -106.074 	 38.9777 	 -21.0341 	 
C 	 -107.171 	 40.3037 	 -21.367 	 
C 	 -107.267 	 40.458 	 -22.7073 	 
C 	 -106.556 	 39.4687 	 -23.5343 	 
C 	 -105.853 	 38.5757 	 -22.7465 	 
H 	 -107.784 	 41.3495 	 -23.0402 	 
C 	 -106.509 	 39.4842 	 -25.0817 	 
H 	 -106.655 	 38.5036 	 -25.5511 	 
H 	 -105.626 	 39.9387 	 -25.4343 	 
C 	 -107.668 	 40.4009 	 -25.6606 	 
H 	 -107.575 	 41.4518 	 -25.3367 	 
H 	 -108.578 	 39.9809 	 -25.1971 	 
C 	 -107.8 	 40.4016 	 -27.1916 	 
H 	 -108.674 	 40.9587 	 -27.532 	 
H 	 -107.927 	 39.4001 	 -27.595 	 
H 	 -106.912 	 40.8436 	 -27.68 	 
H 	 -102.3 	 35.955 	 -24.8904 	 
H 	 -107.745 	 40.8473 	 -20.6376 	 
