34

S 	 -53.5407 	 -45.3608 	 -76.1647 	 
C 	 -54.31 	 -43.7657 	 -76.1321 	 
C 	 -54.5367 	 -43.3662 	 -77.413 	 
C 	 -54.2881 	 -44.4194 	 -78.394 	 
C 	 -53.7699 	 -45.5951 	 -77.9007 	 
H 	 -54.4346 	 -44.38 	 -79.4777 	 
C 	 -54.9755 	 -41.9405 	 -77.8664 	 
H 	 -54.2911 	 -41.5894 	 -78.6995 	 
H 	 -54.9112 	 -41.2101 	 -77.0974 	 
C 	 -56.4057 	 -41.7569 	 -78.4866 	 
H 	 -56.4126 	 -42.3185 	 -79.4067 	 
H 	 -57.1869 	 -42.2924 	 -77.8969 	 
C 	 -56.7507 	 -40.272 	 -78.696 	 
H 	 -56.415 	 -39.8672 	 -79.6771 	 
H 	 -57.8295 	 -40.2256 	 -78.5676 	 
H 	 -56.4231 	 -39.6521 	 -77.8937 	 
S 	 -54.1267 	 -48.3988 	 -78.3218 	 
C 	 -53.5821 	 -49.0869 	 -79.877 	 
C 	 -52.9408 	 -48.1153 	 -80.5523 	 
C 	 -52.8635 	 -46.8395 	 -79.943 	 
C 	 -53.5826 	 -46.7799 	 -78.7418 	 
H 	 -52.4303 	 -48.4164 	 -81.489 	 
C 	 -52.0351 	 -45.743 	 -80.5895 	 
H 	 -52.7933 	 -45.0743 	 -81.1625 	 
H 	 -51.4068 	 -46.1875 	 -81.3369 	 
C 	 -51.0609 	 -45 	 -79.6733 	 
H 	 -51.5743 	 -44.4993 	 -78.8675 	 
H 	 -50.557 	 -44.1968 	 -80.3181 	 
C 	 -50.0215 	 -45.9906 	 -79.1536 	 
H 	 -49.5348 	 -46.504 	 -80.0164 	 
H 	 -50.54 	 -46.7052 	 -78.5644 	 
H 	 -49.28 	 -45.5381 	 -78.5916 	 
H 	 -54.3534 	 -42.9937 	 -75.3584 	 
H 	 -53.8696 	 -49.9856 	 -80.366 	 
