34

S 	 -127.614 	 1.66117 	 4.21692 	 
C 	 -126.355 	 0.622408 	 3.56993 	 
C 	 -125.48 	 0.263405 	 4.53615 	 
C 	 -125.852 	 0.72198 	 5.84028 	 
C 	 -126.896 	 1.61525 	 5.7917 	 
H 	 -125.511 	 0.34384 	 6.77349 	 
C 	 -124.304 	 -0.76947 	 4.27612 	 
H 	 -124.17 	 -0.914682 	 3.23648 	 
H 	 -124.57 	 -1.79094 	 4.74878 	 
C 	 -122.897 	 -0.356987 	 4.77215 	 
H 	 -122.491 	 0.608786 	 4.42842 	 
H 	 -122.871 	 -0.338086 	 5.86103 	 
C 	 -121.903 	 -1.43835 	 4.33363 	 
H 	 -120.967 	 -1.09959 	 4.78538 	 
H 	 -122.095 	 -2.50928 	 4.75643 	 
H 	 -121.752 	 -1.52022 	 3.24954 	 
S 	 -128.226 	 3.78003 	 6.67948 	 
C 	 -128.223 	 4.24699 	 8.36405 	 
C 	 -127.76 	 3.23039 	 9.12359 	 
C 	 -127.438 	 2.03411 	 8.31495 	 
C 	 -127.564 	 2.23285 	 6.95992 	 
H 	 -127.612 	 3.3934 	 10.1631 	 
C 	 -126.746 	 0.798713 	 8.91752 	 
H 	 -126.801 	 0.984001 	 9.98025 	 
H 	 -125.687 	 0.846594 	 8.75049 	 
C 	 -127.363 	 -0.605778 	 8.68837 	 
H 	 -126.806 	 -1.23221 	 9.39101 	 
H 	 -127.05 	 -0.921622 	 7.72363 	 
C 	 -128.879 	 -0.61147 	 8.87228 	 
H 	 -129.274 	 -1.50793 	 8.63842 	 
H 	 -129.336 	 0.144016 	 8.16168 	 
H 	 -129.308 	 -0.416907 	 9.88794 	 
H 	 -126.408 	 0.251531 	 2.5726 	 
H 	 -128.463 	 5.25016 	 8.73405 	 
