34

S 	 -94.5424 	 44.0575 	 -92.1937 	 
C 	 -94.5992 	 42.3071 	 -92.2811 	 
C 	 -95.9302 	 41.7956 	 -92.2014 	 
C 	 -96.8325 	 42.8816 	 -92.1865 	 
C 	 -96.2901 	 44.1182 	 -92.0856 	 
H 	 -97.8407 	 42.6599 	 -92.0425 	 
C 	 -96.4469 	 40.3813 	 -91.9319 	 
H 	 -96.0197 	 39.7617 	 -92.7774 	 
H 	 -97.5005 	 40.5429 	 -92.1538 	 
C 	 -96.1681 	 39.7391 	 -90.5786 	 
H 	 -96.4437 	 40.5114 	 -89.7948 	 
H 	 -96.7279 	 38.8797 	 -90.2589 	 
C 	 -94.7109 	 39.5413 	 -90.3452 	 
H 	 -94.58 	 38.7047 	 -89.6576 	 
H 	 -94.3097 	 39.2452 	 -91.3089 	 
H 	 -94.1126 	 40.3817 	 -89.8657 	 
S 	 -97.9717 	 45.888 	 -91.0874 	 
C 	 -98.42 	 47.286 	 -92.0345 	 
C 	 -97.9789 	 47.2511 	 -93.356 	 
C 	 -97.1226 	 46.1208 	 -93.5638 	 
C 	 -97.0788 	 45.2821 	 -92.4341 	 
H 	 -98.2768 	 47.9515 	 -94.0794 	 
C 	 -96.5387 	 45.8078 	 -94.9574 	 
H 	 -96.3801 	 44.7511 	 -94.9834 	 
H 	 -95.5153 	 46.2517 	 -94.9029 	 
C 	 -97.3402 	 46.1617 	 -96.1945 	 
H 	 -97.2744 	 47.2643 	 -96.2098 	 
H 	 -98.3316 	 45.8867 	 -96.0381 	 
C 	 -96.6107 	 45.6984 	 -97.4333 	 
H 	 -95.7697 	 46.371 	 -97.7462 	 
H 	 -97.3058 	 45.7266 	 -98.2587 	 
H 	 -96.0845 	 44.7211 	 -97.2279 	 
H 	 -93.7264 	 41.6711 	 -92.2219 	 
H 	 -99.1759 	 48.0164 	 -91.6941 	 
