34

S 	 23.8935 	 -23.9434 	 -123.539 	 
C 	 23.7037 	 -25.3826 	 -124.459 	 
C 	 24.2463 	 -26.5312 	 -123.937 	 
C 	 25.1241 	 -26.1539 	 -122.831 	 
C 	 24.8661 	 -24.8293 	 -122.41 	 
H 	 25.7937 	 -26.7699 	 -122.154 	 
C 	 24.1744 	 -27.9003 	 -124.564 	 
H 	 23.6056 	 -27.8863 	 -125.517 	 
H 	 23.6116 	 -28.4128 	 -123.771 	 
C 	 25.5558 	 -28.5832 	 -124.838 	 
H 	 26.0658 	 -28.1257 	 -125.674 	 
H 	 26.1574 	 -28.6617 	 -123.901 	 
C 	 25.3038 	 -30.0331 	 -125.317 	 
H 	 24.5334 	 -30.089 	 -126.086 	 
H 	 26.1401 	 -30.4905 	 -125.701 	 
H 	 24.8284 	 -30.676 	 -124.539 	 
S 	 26.4554 	 -22.9546 	 -121.125 	 
C 	 26.7744 	 -23.0917 	 -119.48 	 
C 	 26.021 	 -24.1131 	 -118.886 	 
C 	 25.2754 	 -24.9019 	 -119.854 	 
C 	 25.3256 	 -24.2895 	 -121.122 	 
H 	 25.9795 	 -24.1949 	 -117.804 	 
C 	 24.5927 	 -26.231 	 -119.47 	 
H 	 25.3797 	 -26.8858 	 -119.342 	 
H 	 24.0084 	 -26.5677 	 -120.241 	 
C 	 23.6536 	 -26.3757 	 -118.25 	 
H 	 24.2553 	 -26.2261 	 -117.333 	 
H 	 23.4169 	 -27.4252 	 -118.104 	 
C 	 22.4874 	 -25.3579 	 -118.276 	 
H 	 21.9127 	 -25.5776 	 -117.271 	 
H 	 21.8211 	 -25.4741 	 -119.166 	 
H 	 22.8059 	 -24.3424 	 -118.18 	 
H 	 23.1538 	 -25.4612 	 -125.412 	 
H 	 27.3262 	 -22.324 	 -119.004 	 
