34

S 	 -91.1758 	 -29.5352 	 -71.4338 	 
C 	 -91.65 	 -30.6523 	 -72.5868 	 
C 	 -90.77 	 -30.724 	 -73.6396 	 
C 	 -89.8849 	 -29.586 	 -73.6175 	 
C 	 -90.0889 	 -28.7605 	 -72.5391 	 
H 	 -89.1857 	 -29.2006 	 -74.3237 	 
C 	 -90.9696 	 -31.5612 	 -74.8803 	 
H 	 -91.3697 	 -32.533 	 -74.6208 	 
H 	 -90.0234 	 -31.6937 	 -75.2949 	 
C 	 -91.96 	 -30.8935 	 -75.846 	 
H 	 -91.8774 	 -31.4021 	 -76.8097 	 
H 	 -93.0267 	 -30.9773 	 -75.6258 	 
C 	 -91.6772 	 -29.4793 	 -76.3785 	 
H 	 -91.4773 	 -28.7947 	 -75.5478 	 
H 	 -90.8892 	 -29.3389 	 -77.1285 	 
H 	 -92.6619 	 -29.1972 	 -76.8228 	 
S 	 -88.5056 	 -27.2634 	 -70.7933 	 
C 	 -88.119 	 -25.5904 	 -71.1579 	 
C 	 -88.3026 	 -25.3185 	 -72.4663 	 
C 	 -89.1267 	 -26.3595 	 -73.1086 	 
C 	 -89.4062 	 -27.4492 	 -72.2998 	 
H 	 -87.8795 	 -24.3848 	 -72.9358 	 
C 	 -89.6514 	 -26.0698 	 -74.5012 	 
H 	 -89.685 	 -27.0264 	 -75.024 	 
H 	 -88.9704 	 -25.3917 	 -75.161 	 
C 	 -90.993 	 -25.3383 	 -74.4504 	 
H 	 -90.9846 	 -24.481 	 -73.8347 	 
H 	 -91.6995 	 -26.0461 	 -74.0257 	 
C 	 -91.4676 	 -24.8648 	 -75.8708 	 
H 	 -92.4031 	 -24.3722 	 -75.8146 	 
H 	 -91.6 	 -25.701 	 -76.5208 	 
H 	 -90.8027 	 -24.1208 	 -76.3956 	 
H 	 -92.5547 	 -31.1983 	 -72.6313 	 
H 	 -87.5485 	 -24.9164 	 -70.5442 	 
