34

S 	 -50.5423 	 16.2343 	 -100.4 	 
C 	 -51.8629 	 17.3649 	 -100.384 	 
C 	 -51.3872 	 18.6396 	 -100.552 	 
C 	 -49.9905 	 18.7308 	 -100.295 	 
C 	 -49.3551 	 17.505 	 -100.307 	 
H 	 -49.4455 	 19.5999 	 -100.165 	 
C 	 -52.2753 	 19.8689 	 -100.7 	 
H 	 -53.1288 	 19.6548 	 -101.302 	 
H 	 -51.6258 	 20.6528 	 -101.181 	 
C 	 -52.6449 	 20.4756 	 -99.2929 	 
H 	 -51.7274 	 20.623 	 -98.7541 	 
H 	 -53.0902 	 21.5009 	 -99.5409 	 
C 	 -53.6524 	 19.6641 	 -98.5189 	 
H 	 -54.545 	 19.578 	 -99.1063 	 
H 	 -53.2981 	 18.6241 	 -98.351 	 
H 	 -53.8873 	 20.1244 	 -97.5571 	 
S 	 -47.2925 	 16.3829 	 -98.7614 	 
C 	 -45.6117 	 16.8882 	 -99.1543 	 
C 	 -45.5667 	 17.6132 	 -100.347 	 
C 	 -46.8583 	 17.6968 	 -100.975 	 
C 	 -47.9277 	 17.2393 	 -100.139 	 
H 	 -44.5762 	 17.9266 	 -100.712 	 
C 	 -47.1203 	 18.447 	 -102.227 	 
H 	 -48.1393 	 18.7755 	 -102.285 	 
H 	 -47.0806 	 17.6576 	 -102.983 	 
C 	 -46.0622 	 19.5729 	 -102.53 	 
H 	 -46.3427 	 19.9388 	 -103.502 	 
H 	 -45.1013 	 19.0984 	 -102.745 	 
C 	 -46.2142 	 20.8204 	 -101.579 	 
H 	 -46.1918 	 20.5673 	 -100.49 	 
H 	 -47.2124 	 21.2399 	 -101.865 	 
H 	 -45.558 	 21.7054 	 -101.82 	 
H 	 -52.881 	 17.0668 	 -100.517 	 
H 	 -44.7856 	 16.5646 	 -98.5955 	 
