34

S 	 -114.249 	 57.3735 	 -78.5759 	 
C 	 -114.632 	 57.6969 	 -80.2409 	 
C 	 -113.534 	 58.0833 	 -81.0131 	 
C 	 -112.351 	 58.297 	 -80.1762 	 
C 	 -112.584 	 58.0952 	 -78.7983 	 
H 	 -111.439 	 58.5833 	 -80.5316 	 
C 	 -113.515 	 58.1552 	 -82.555 	 
H 	 -114.093 	 57.4035 	 -83.0692 	 
H 	 -112.487 	 57.7569 	 -82.6653 	 
C 	 -113.814 	 59.558 	 -83.1763 	 
H 	 -113.638 	 59.4376 	 -84.2722 	 
H 	 -114.882 	 59.8402 	 -82.9424 	 
C 	 -112.801 	 60.6196 	 -82.5934 	 
H 	 -112.968 	 60.9502 	 -81.5625 	 
H 	 -111.787 	 60.2128 	 -82.7374 	 
H 	 -112.859 	 61.4579 	 -83.2986 	 
S 	 -112.085 	 57.3457 	 -76.1544 	 
C 	 -110.826 	 58.2223 	 -75.3575 	 
C 	 -110.051 	 58.9883 	 -76.2365 	 
C 	 -110.462 	 58.9721 	 -77.6087 	 
C 	 -111.653 	 58.2109 	 -77.7075 	 
H 	 -109.133 	 59.3923 	 -75.8765 	 
C 	 -109.708 	 59.7046 	 -78.7462 	 
H 	 -110.452 	 60.3091 	 -79.3428 	 
H 	 -109.413 	 58.9407 	 -79.4421 	 
C 	 -108.487 	 60.5681 	 -78.3224 	 
H 	 -107.736 	 60.0534 	 -77.6939 	 
H 	 -108.893 	 61.405 	 -77.7663 	 
C 	 -107.716 	 61.1668 	 -79.529 	 
H 	 -107.502 	 60.4108 	 -80.2257 	 
H 	 -106.809 	 61.5674 	 -79.1459 	 
H 	 -108.212 	 62.0537 	 -79.9594 	 
H 	 -115.62 	 57.3939 	 -80.5989 	 
H 	 -110.581 	 58.2059 	 -74.3548 	 
