34

S 	 -42.9703 	 -3.28394 	 15.395 	 
C 	 -44.407 	 -2.31667 	 15.0133 	 
C 	 -44.6979 	 -2.4261 	 13.6651 	 
C 	 -43.9251 	 -3.45392 	 13.0474 	 
C 	 -42.9326 	 -4.033 	 13.8069 	 
H 	 -44.0787 	 -3.84619 	 12.0023 	 
C 	 -45.8602 	 -1.73644 	 12.8691 	 
H 	 -46.7736 	 -2.19591 	 13.3031 	 
H 	 -45.9137 	 -1.95902 	 11.8095 	 
C 	 -46.1775 	 -0.28732 	 13.139 	 
H 	 -46.4051 	 -0.127737 	 14.1867 	 
H 	 -45.3989 	 0.430956 	 12.9496 	 
C 	 -47.4178 	 0.202244 	 12.3817 	 
H 	 -48.3296 	 -0.388039 	 12.432 	 
H 	 -47.5809 	 1.22109 	 12.7105 	 
H 	 -47.1652 	 0.224751 	 11.3305 	 
S 	 -41.8004 	 -6.56664 	 14.2914 	 
C 	 -40.9917 	 -7.35053 	 12.9534 	 
C 	 -40.7409 	 -6.40681 	 11.8895 	 
C 	 -41.2157 	 -5.095 	 12.2198 	 
C 	 -41.9664 	 -5.05507 	 13.348 	 
H 	 -40.1902 	 -6.7744 	 10.9938 	 
C 	 -41.1675 	 -3.98134 	 11.2042 	 
H 	 -40.1826 	 -3.65353 	 10.9783 	 
H 	 -41.5231 	 -3.00434 	 11.5511 	 
C 	 -41.7743 	 -4.32627 	 9.87202 	 
H 	 -42.6556 	 -5.05911 	 9.89142 	 
H 	 -40.8708 	 -4.78964 	 9.34326 	 
C 	 -42.1395 	 -3.02058 	 9.20185 	 
H 	 -41.3115 	 -2.36247 	 9.02297 	 
H 	 -42.7445 	 -2.4667 	 9.87684 	 
H 	 -42.6911 	 -3.25791 	 8.3237 	 
H 	 -44.8664 	 -1.5487 	 15.5956 	 
H 	 -40.6559 	 -8.37336 	 12.9819 	 
