34

S 	 -85.6319 	 -18.5081 	 -50.6427 	 
C 	 -86.4775 	 -16.9909 	 -50.8022 	 
C 	 -85.5825 	 -15.9246 	 -50.8472 	 
C 	 -84.2196 	 -16.3166 	 -50.8064 	 
C 	 -84.0564 	 -17.7066 	 -50.6257 	 
H 	 -83.4153 	 -15.5635 	 -50.7877 	 
C 	 -85.9733 	 -14.4855 	 -51.0222 	 
H 	 -85.0827 	 -13.928 	 -51.1585 	 
H 	 -86.4837 	 -14.2517 	 -50.0405 	 
C 	 -86.9208 	 -14.0769 	 -52.1579 	 
H 	 -86.4502 	 -14.5276 	 -53.0125 	 
H 	 -87.861 	 -14.5052 	 -51.9913 	 
C 	 -86.9468 	 -12.5483 	 -52.4664 	 
H 	 -87.7435 	 -12.2319 	 -53.1503 	 
H 	 -87.1809 	 -12.1079 	 -51.566 	 
H 	 -86.0609 	 -12.1408 	 -52.8344 	 
S 	 -83.1087 	 -19.9022 	 -49.2277 	 
C 	 -81.4353 	 -20.0956 	 -48.8385 	 
C 	 -80.6977 	 -19.2702 	 -49.6764 	 
C 	 -81.4359 	 -18.2679 	 -50.368 	 
C 	 -82.8096 	 -18.4095 	 -50.2298 	 
H 	 -79.6381 	 -19.2076 	 -49.7139 	 
C 	 -80.7816 	 -17.1975 	 -51.2995 	 
H 	 -80.3012 	 -16.4143 	 -50.6685 	 
H 	 -81.698 	 -16.7876 	 -51.8339 	 
C 	 -79.8405 	 -17.7423 	 -52.3044 	 
H 	 -80.1196 	 -18.6789 	 -52.718 	 
H 	 -79.0402 	 -18.1365 	 -51.7269 	 
C 	 -79.5134 	 -16.7146 	 -53.3733 	 
H 	 -79.6862 	 -15.6757 	 -52.9843 	 
H 	 -80.0366 	 -16.8995 	 -54.2683 	 
H 	 -78.5212 	 -16.749 	 -53.7602 	 
H 	 -87.5446 	 -16.9305 	 -50.7809 	 
H 	 -80.9924 	 -20.8864 	 -48.1632 	 
