34

S 	 -106.712 	 3.61636 	 -113.036 	 
C 	 -107.207 	 4.20068 	 -114.599 	 
C 	 -106.192 	 3.87249 	 -115.538 	 
C 	 -105.154 	 3.04807 	 -115.005 	 
C 	 -105.192 	 2.81343 	 -113.605 	 
H 	 -104.214 	 2.7685 	 -115.441 	 
C 	 -106.278 	 4.25583 	 -116.891 	 
H 	 -107.183 	 3.82556 	 -117.336 	 
H 	 -105.446 	 3.75411 	 -117.501 	 
C 	 -106.175 	 5.75939 	 -117.259 	 
H 	 -106.882 	 6.32 	 -116.631 	 
H 	 -105.231 	 6.22242 	 -116.936 	 
C 	 -106.44 	 6.09049 	 -118.699 	 
H 	 -107.404 	 5.7382 	 -119.029 	 
H 	 -106.323 	 7.14587 	 -118.942 	 
H 	 -105.659 	 5.63172 	 -119.356 	 
S 	 -103.828 	 3.02099 	 -111.251 	 
C 	 -102.802 	 1.61993 	 -110.906 	 
C 	 -102.51 	 0.818485 	 -111.939 	 
C 	 -103.451 	 1.04226 	 -112.979 	 
C 	 -104.165 	 2.23385 	 -112.771 	 
H 	 -101.749 	 0.0599798 	 -111.791 	 
C 	 -103.47 	 0.145304 	 -114.234 	 
H 	 -102.831 	 0.579217 	 -115.003 	 
H 	 -104.464 	 0.294873 	 -114.634 	 
C 	 -103.294 	 -1.37416 	 -114.033 	 
H 	 -103.954 	 -1.62234 	 -113.286 	 
H 	 -102.326 	 -1.64061 	 -113.66 	 
C 	 -103.657 	 -2.28182 	 -115.239 	 
H 	 -103.439 	 -3.3272 	 -114.931 	 
H 	 -103.09 	 -2.1251 	 -116.117 	 
H 	 -104.694 	 -2.25718 	 -115.481 	 
H 	 -108.1 	 4.7106 	 -114.829 	 
H 	 -102.229 	 1.61812 	 -110.093 	 
