34

S 	 -83.9311 	 -42.1258 	 -89.9492 	 
C 	 -82.6414 	 -40.9814 	 -90.0911 	 
C 	 -81.4032 	 -41.5005 	 -89.7227 	 
C 	 -81.4904 	 -42.8718 	 -89.3237 	 
C 	 -82.7617 	 -43.34 	 -89.5093 	 
H 	 -80.7191 	 -43.5347 	 -88.9686 	 
C 	 -80.0778 	 -40.6375 	 -89.7532 	 
H 	 -80.0322 	 -40.0923 	 -90.7092 	 
H 	 -79.2146 	 -41.2538 	 -89.7553 	 
C 	 -80.0048 	 -39.5468 	 -88.6504 	 
H 	 -80.9353 	 -38.9947 	 -88.6376 	 
H 	 -80.0592 	 -40.1524 	 -87.7306 	 
C 	 -78.6297 	 -38.8113 	 -88.6982 	 
H 	 -78.4913 	 -38.3364 	 -89.6027 	 
H 	 -78.7933 	 -38.1133 	 -87.8656 	 
H 	 -77.7549 	 -39.464 	 -88.4701 	 
S 	 -84.7924 	 -44.8481 	 -88.4392 	 
C 	 -84.7664 	 -46.5778 	 -88.6416 	 
C 	 -83.8187 	 -47.0256 	 -89.5065 	 
C 	 -82.964 	 -45.9645 	 -89.9366 	 
C 	 -83.2564 	 -44.7128 	 -89.2917 	 
H 	 -83.8734 	 -48.0788 	 -89.8682 	 
C 	 -81.7136 	 -46.111 	 -90.8522 	 
H 	 -81.2476 	 -47.0917 	 -90.5887 	 
H 	 -80.9701 	 -45.4185 	 -90.5743 	 
C 	 -81.9326 	 -46.0151 	 -92.4026 	 
H 	 -80.9948 	 -45.7422 	 -92.8931 	 
H 	 -82.5498 	 -45.127 	 -92.626 	 
C 	 -82.4822 	 -47.3272 	 -93.0423 	 
H 	 -83.5992 	 -47.1375 	 -93.2251 	 
H 	 -82.193 	 -48.278 	 -92.6342 	 
H 	 -82.1145 	 -47.3147 	 -94.0074 	 
H 	 -82.7641 	 -39.9103 	 -90.2918 	 
H 	 -85.5969 	 -47.1948 	 -88.333 	 
