34

S 	 -111.295 	 63.1783 	 -74.2325 	 
C 	 -110.017 	 62.0387 	 -74.7321 	 
C 	 -110.618 	 60.8992 	 -75.2554 	 
C 	 -112.051 	 60.9297 	 -75.3195 	 
C 	 -112.602 	 62.1432 	 -74.8935 	 
H 	 -112.593 	 60.1089 	 -75.6871 	 
C 	 -109.864 	 59.6052 	 -75.4707 	 
H 	 -109.162 	 60.0229 	 -76.2101 	 
H 	 -110.533 	 58.8919 	 -75.9653 	 
C 	 -109.204 	 58.9404 	 -74.1668 	 
H 	 -108.583 	 58.0686 	 -74.5269 	 
H 	 -108.465 	 59.6243 	 -73.6972 	 
C 	 -110.314 	 58.4495 	 -73.1845 	 
H 	 -109.807 	 57.7752 	 -72.4668 	 
H 	 -110.724 	 59.3267 	 -72.6664 	 
H 	 -111.062 	 57.7542 	 -73.6311 	 
S 	 -114.497 	 63.4607 	 -73.2186 	 
C 	 -116.16 	 63.4071 	 -73.7624 	 
C 	 -116.338 	 62.607 	 -74.8684 	 
C 	 -115.129 	 62.032 	 -75.3737 	 
C 	 -114.008 	 62.466 	 -74.6182 	 
H 	 -117.261 	 62.4554 	 -75.2924 	 
C 	 -115.148 	 61.1162 	 -76.5624 	 
H 	 -114.992 	 60.1561 	 -76.0795 	 
H 	 -114.252 	 61.2339 	 -77.1819 	 
C 	 -116.382 	 61.0756 	 -77.4652 	 
H 	 -117.351 	 60.7642 	 -76.9989 	 
H 	 -116.196 	 60.3055 	 -78.1984 	 
C 	 -116.586 	 62.3357 	 -78.3256 	 
H 	 -116.978 	 63.189 	 -77.7446 	 
H 	 -117.398 	 62.099 	 -78.9515 	 
H 	 -115.68 	 62.6841 	 -78.7586 	 
H 	 -108.952 	 62.2082 	 -74.5869 	 
H 	 -117.061 	 63.934 	 -73.319 	 
