34

S 	 -107.358 	 43.1846 	 -9.91694 	 
C 	 -108.35 	 44.071 	 -11.0577 	 
C 	 -108.323 	 43.5383 	 -12.3245 	 
C 	 -107.182 	 42.697 	 -12.514 	 
C 	 -106.577 	 42.3932 	 -11.3134 	 
H 	 -106.913 	 42.2413 	 -13.4563 	 
C 	 -109.058 	 44.0744 	 -13.486 	 
H 	 -108.269 	 44.3945 	 -14.2596 	 
H 	 -109.419 	 45.027 	 -13.1935 	 
C 	 -110.239 	 43.1728 	 -14.0414 	 
H 	 -110.449 	 43.3415 	 -15.1129 	 
H 	 -109.839 	 42.1357 	 -14.029 	 
C 	 -111.528 	 43.3661 	 -13.3451 	 
H 	 -112.302 	 42.6874 	 -13.5321 	 
H 	 -111.303 	 43.4115 	 -12.2451 	 
H 	 -112.057 	 44.2821 	 -13.6251 	 
S 	 -103.964 	 41.9409 	 -11.9439 	 
C 	 -103.188 	 40.548 	 -11.2599 	 
C 	 -104.088 	 39.6986 	 -10.6501 	 
C 	 -105.34 	 40.3102 	 -10.4413 	 
C 	 -105.466 	 41.4998 	 -11.1617 	 
H 	 -103.694 	 38.8445 	 -10.0798 	 
C 	 -106.445 	 39.7076 	 -9.5817 	 
H 	 -107.211 	 40.4115 	 -9.29035 	 
H 	 -105.963 	 39.3883 	 -8.64909 	 
C 	 -107.201 	 38.5463 	 -10.1839 	 
H 	 -106.449 	 37.8298 	 -10.5638 	 
H 	 -107.689 	 38.9706 	 -11.0964 	 
C 	 -108.365 	 37.9913 	 -9.34375 	 
H 	 -108.866 	 38.7668 	 -8.74158 	 
H 	 -107.903 	 37.3751 	 -8.54553 	 
H 	 -108.92 	 37.2412 	 -9.81509 	 
H 	 -109.012 	 44.8007 	 -10.6606 	 
H 	 -102.14 	 40.2899 	 -11.4013 	 
