34

S 	 49.0216 	 -32.7001 	 -118.846 	 
C 	 48.7254 	 -31.12 	 -119.682 	 
C 	 47.5174 	 -30.5406 	 -119.32 	 
C 	 46.8128 	 -31.445 	 -118.405 	 
C 	 47.4738 	 -32.663 	 -118.153 	 
H 	 45.8404 	 -31.1634 	 -117.969 	 
C 	 46.9331 	 -29.2548 	 -119.875 	 
H 	 45.8597 	 -29.4715 	 -119.951 	 
H 	 47.3294 	 -29.1107 	 -120.884 	 
C 	 47.0821 	 -28.028 	 -119.024 	 
H 	 46.5368 	 -28.128 	 -118.084 	 
H 	 48.1191 	 -27.8896 	 -118.718 	 
C 	 46.6083 	 -26.759 	 -119.768 	 
H 	 45.4828 	 -26.8528 	 -119.789 	 
H 	 46.9443 	 -25.8998 	 -119.206 	 
H 	 46.9098 	 -26.6007 	 -120.793 	 
S 	 48.2186 	 -34.6231 	 -116.276 	 
C 	 46.9332 	 -35.5309 	 -115.443 	 
C 	 45.6825 	 -35.1828 	 -115.964 	 
C 	 45.7255 	 -34.2704 	 -117.114 	 
C 	 46.988 	 -33.7313 	 -117.29 	 
H 	 44.7859 	 -35.5749 	 -115.539 	 
C 	 44.4078 	 -33.7653 	 -117.759 	 
H 	 44.5731 	 -33.2197 	 -118.683 	 
H 	 43.9511 	 -33.1439 	 -117.048 	 
C 	 43.4701 	 -34.9329 	 -118.103 	 
H 	 43.3017 	 -35.6081 	 -117.329 	 
H 	 43.8487 	 -35.613 	 -118.807 	 
C 	 42.1722 	 -34.3521 	 -118.601 	 
H 	 42.2178 	 -33.9057 	 -119.571 	 
H 	 41.8134 	 -33.4103 	 -118.086 	 
H 	 41.3856 	 -35.068 	 -118.584 	 
H 	 49.5464 	 -30.7564 	 -120.259 	 
H 	 47.1526 	 -36.1774 	 -114.606 	 
