34

S 	 -31.4294 	 -30.5394 	 -95.2113 	 
C 	 -33.1385 	 -30.6401 	 -95.4055 	 
C 	 -33.7924 	 -29.9004 	 -94.4437 	 
C 	 -32.8511 	 -29.4295 	 -93.4585 	 
C 	 -31.4915 	 -29.5773 	 -93.8317 	 
H 	 -33.1823 	 -28.8346 	 -92.6156 	 
C 	 -35.3555 	 -29.9362 	 -94.2362 	 
H 	 -35.9798 	 -29.7121 	 -95.0635 	 
H 	 -35.5934 	 -29.06 	 -93.5726 	 
C 	 -35.8666 	 -31.1522 	 -93.5598 	 
H 	 -35.4205 	 -31.1683 	 -92.5466 	 
H 	 -36.9637 	 -30.9167 	 -93.4494 	 
C 	 -35.5441 	 -32.4447 	 -94.3134 	 
H 	 -35.8665 	 -33.2385 	 -93.6341 	 
H 	 -35.9977 	 -32.5308 	 -95.2716 	 
H 	 -34.4848 	 -32.6165 	 -94.5219 	 
S 	 -29.1833 	 -30.4596 	 -92.6213 	 
C 	 -28.2751 	 -29.3631 	 -91.4992 	 
C 	 -28.8621 	 -28.0897 	 -91.5117 	 
C 	 -30.0206 	 -28.0245 	 -92.3654 	 
C 	 -30.3748 	 -29.2041 	 -92.9936 	 
H 	 -28.4609 	 -27.3475 	 -90.9732 	 
C 	 -30.8116 	 -26.7207 	 -92.5142 	 
H 	 -31.6116 	 -26.8934 	 -93.1412 	 
H 	 -30.1788 	 -25.9831 	 -92.8943 	 
C 	 -31.3811 	 -26.2457 	 -91.1988 	 
H 	 -30.6797 	 -26.161 	 -90.4196 	 
H 	 -32.0306 	 -27.0158 	 -90.8698 	 
C 	 -32.2126 	 -24.9992 	 -91.2245 	 
H 	 -32.5556 	 -24.7131 	 -90.2187 	 
H 	 -33.0496 	 -25.0702 	 -91.954 	 
H 	 -31.6725 	 -24.1426 	 -91.5238 	 
H 	 -33.686 	 -31.1526 	 -96.1441 	 
H 	 -27.4587 	 -29.6889 	 -90.8724 	 
