34

S 	 -97.8085 	 -26.7755 	 -64.0593 	 
C 	 -97.938 	 -25.4789 	 -65.2348 	 
C 	 -98.8821 	 -24.5499 	 -64.8722 	 
C 	 -99.4181 	 -24.9115 	 -63.5781 	 
C 	 -98.7467 	 -25.9038 	 -62.8778 	 
H 	 -100.161 	 -24.3156 	 -62.9978 	 
C 	 -99.3716 	 -23.3293 	 -65.6649 	 
H 	 -100.454 	 -23.2469 	 -65.6197 	 
H 	 -99.1567 	 -23.4174 	 -66.7631 	 
C 	 -98.7315 	 -22.0251 	 -65.1456 	 
H 	 -99.3337 	 -21.7793 	 -64.2475 	 
H 	 -97.7442 	 -22.1311 	 -64.6925 	 
C 	 -98.7951 	 -20.8777 	 -66.2384 	 
H 	 -99.7706 	 -20.671 	 -66.5627 	 
H 	 -98.3672 	 -19.9473 	 -65.7581 	 
H 	 -98.2552 	 -21.1015 	 -67.1573 	 
S 	 -98.8101 	 -28.0957 	 -61.2668 	 
C 	 -99.602 	 -28.0524 	 -59.7642 	 
C 	 -99.8074 	 -26.7865 	 -59.3257 	 
C 	 -99.4795 	 -25.8384 	 -60.3432 	 
C 	 -99.0176 	 -26.4038 	 -61.5409 	 
H 	 -100.197 	 -26.5609 	 -58.3833 	 
C 	 -99.8242 	 -24.3254 	 -60.1275 	 
H 	 -100.471 	 -24.351 	 -59.2852 	 
H 	 -100.328 	 -23.9409 	 -61.0426 	 
C 	 -98.6004 	 -23.4984 	 -59.8183 	 
H 	 -98.0809 	 -23.5014 	 -60.766 	 
H 	 -98.0235 	 -23.94 	 -59.0783 	 
C 	 -98.8864 	 -22.0047 	 -59.557 	 
H 	 -99.6514 	 -21.8546 	 -58.7882 	 
H 	 -99.2834 	 -21.4835 	 -60.4612 	 
H 	 -97.9066 	 -21.5163 	 -59.2894 	 
H 	 -97.3987 	 -25.507 	 -66.1408 	 
H 	 -99.7043 	 -28.8029 	 -59.0356 	 
