34

S 	 -57.9828 	 14.4825 	 -99.272 	 
C 	 -56.9962 	 15.5146 	 -100.271 	 
C 	 -56.5033 	 14.923 	 -101.383 	 
C 	 -56.8666 	 13.5785 	 -101.512 	 
C 	 -57.7868 	 13.1947 	 -100.502 	 
H 	 -56.5845 	 12.9212 	 -102.304 	 
C 	 -55.6351 	 15.5523 	 -102.433 	 
H 	 -56.191 	 16.4059 	 -102.833 	 
H 	 -55.5523 	 14.8233 	 -103.279 	 
C 	 -54.2029 	 16.1556 	 -102.008 	 
H 	 -53.5203 	 15.32 	 -101.786 	 
H 	 -53.6381 	 16.672 	 -102.851 	 
C 	 -54.2342 	 17.2168 	 -100.885 	 
H 	 -54.6714 	 16.7357 	 -99.9053 	 
H 	 -53.2285 	 17.551 	 -100.687 	 
H 	 -54.8134 	 18.0883 	 -101.104 	 
S 	 -57.4777 	 11.0117 	 -98.8446 	 
C 	 -58.2529 	 9.50364 	 -99.1553 	 
C 	 -58.984 	 9.60765 	 -100.345 	 
C 	 -58.9382 	 10.9104 	 -100.939 	 
C 	 -58.1696 	 11.8576 	 -100.243 	 
H 	 -59.3742 	 8.68053 	 -100.731 	 
C 	 -59.5535 	 11.1508 	 -102.291 	 
H 	 -58.932 	 10.6659 	 -102.997 	 
H 	 -59.6151 	 12.2089 	 -102.485 	 
C 	 -60.9641 	 10.5671 	 -102.624 	 
H 	 -61.751 	 10.9671 	 -101.964 	 
H 	 -61.0196 	 9.52066 	 -102.624 	 
C 	 -61.4655 	 10.9821 	 -104.013 	 
H 	 -62.4534 	 10.5357 	 -104.22 	 
H 	 -60.8042 	 10.6278 	 -104.736 	 
H 	 -61.6135 	 12.083 	 -103.939 	 
H 	 -57.006 	 16.5925 	 -100.003 	 
H 	 -58.1746 	 8.60234 	 -98.621 	 
