34

S 	 -53.3681 	 -4.0187 	 -29.3132 	 
C 	 -52.5758 	 -4.32489 	 -27.7918 	 
C 	 -53.386 	 -4.96524 	 -26.8467 	 
C 	 -54.6533 	 -5.23665 	 -27.3607 	 
C 	 -54.8513 	 -4.68426 	 -28.6503 	 
H 	 -55.5098 	 -5.68402 	 -26.8393 	 
C 	 -52.979 	 -5.30413 	 -25.3663 	 
H 	 -53.3095 	 -4.4466 	 -24.7013 	 
H 	 -51.892 	 -5.18541 	 -25.2772 	 
C 	 -53.3765 	 -6.64405 	 -24.8187 	 
H 	 -54.4947 	 -6.77468 	 -24.7764 	 
H 	 -52.9842 	 -7.3949 	 -25.5483 	 
C 	 -52.9344 	 -6.72636 	 -23.3677 	 
H 	 -53.4095 	 -5.96992 	 -22.7183 	 
H 	 -53.1119 	 -7.65964 	 -22.929 	 
H 	 -51.8956 	 -6.62619 	 -23.3464 	 
S 	 -55.8806 	 -6.35835 	 -30.6067 	 
C 	 -57.5695 	 -6.23746 	 -30.9685 	 
C 	 -58.1919 	 -5.10616 	 -30.3767 	 
C 	 -57.2622 	 -4.37113 	 -29.5486 	 
C 	 -55.9942 	 -4.92274 	 -29.5204 	 
H 	 -59.2468 	 -4.96392 	 -30.5297 	 
C 	 -57.7814 	 -3.39444 	 -28.5561 	 
H 	 -57.1206 	 -3.12439 	 -27.7572 	 
H 	 -58.6 	 -3.87963 	 -28.1257 	 
C 	 -58.2659 	 -2.06657 	 -29.1655 	 
H 	 -58.9951 	 -1.57979 	 -28.4166 	 
H 	 -58.6798 	 -2.41813 	 -30.1216 	 
C 	 -57.0986 	 -1.03986 	 -29.5312 	 
H 	 -56.4417 	 -0.90651 	 -28.7106 	 
H 	 -57.381 	 -0.0456511 	 -29.7191 	 
H 	 -56.5663 	 -1.50666 	 -30.3905 	 
H 	 -51.6104 	 -3.90295 	 -27.623 	 
H 	 -58.0702 	 -6.84555 	 -31.7078 	 
