34

S 	 -89.542 	 -30.6471 	 -57.7005 	 
C 	 -88.0381 	 -31.4528 	 -58.1086 	 
C 	 -86.9637 	 -30.831 	 -57.3718 	 
C 	 -87.4831 	 -30.0112 	 -56.3165 	 
C 	 -88.8356 	 -29.6993 	 -56.4312 	 
H 	 -86.9876 	 -29.5451 	 -55.5633 	 
C 	 -85.5305 	 -31.2711 	 -57.3929 	 
H 	 -84.9537 	 -30.6679 	 -56.6643 	 
H 	 -85.0865 	 -31.1033 	 -58.4008 	 
C 	 -85.3485 	 -32.6989 	 -57.0425 	 
H 	 -85.9042 	 -33.3546 	 -57.7684 	 
H 	 -84.3946 	 -33.0412 	 -57.1564 	 
C 	 -85.8838 	 -33.015 	 -55.589 	 
H 	 -85.6138 	 -32.3234 	 -54.8042 	 
H 	 -86.9433 	 -32.979 	 -55.592 	 
H 	 -85.5689 	 -33.9859 	 -55.2152 	 
S 	 -90.3154 	 -27.3203 	 -56.4945 	 
C 	 -90.7898 	 -26.5597 	 -54.978 	 
C 	 -90.3021 	 -27.2848 	 -53.9163 	 
C 	 -89.5509 	 -28.4251 	 -54.3018 	 
C 	 -89.4903 	 -28.6247 	 -55.6399 	 
H 	 -90.5333 	 -27.014 	 -52.954 	 
C 	 -88.8603 	 -29.2275 	 -53.2034 	 
H 	 -88.9988 	 -28.7355 	 -52.2306 	 
H 	 -87.8046 	 -29.1646 	 -53.3474 	 
C 	 -89.4582 	 -30.6575 	 -53.1404 	 
H 	 -89.2656 	 -31.1379 	 -54.0871 	 
H 	 -90.5667 	 -30.5871 	 -53.0726 	 
C 	 -88.9217 	 -31.5105 	 -51.9889 	 
H 	 -89.4191 	 -31.289 	 -50.967 	 
H 	 -87.8789 	 -31.6956 	 -51.889 	 
H 	 -89.2513 	 -32.5131 	 -52.1767 	 
H 	 -88.0148 	 -32.1454 	 -58.9571 	 
H 	 -91.546 	 -25.8301 	 -54.8169 	 
