34

S 	 26.9867 	 -6.02427 	 -112.465 	 
C 	 26.75 	 -7.30987 	 -113.505 	 
C 	 25.403 	 -7.57345 	 -113.686 	 
C 	 24.5183 	 -6.76702 	 -112.929 	 
C 	 25.2343 	 -5.86631 	 -112.13 	 
H 	 23.4288 	 -6.69548 	 -112.807 	 
C 	 24.9531 	 -8.71629 	 -114.521 	 
H 	 24.0361 	 -9.19364 	 -114.055 	 
H 	 25.7634 	 -9.49957 	 -114.466 	 
C 	 24.5617 	 -8.4047 	 -115.969 	 
H 	 25.4345 	 -7.91631 	 -116.325 	 
H 	 24.4552 	 -9.35438 	 -116.448 	 
C 	 23.3273 	 -7.55094 	 -116.115 	 
H 	 22.4573 	 -7.9404 	 -115.547 	 
H 	 23.432 	 -6.57813 	 -115.805 	 
H 	 22.8508 	 -7.45522 	 -117.095 	 
S 	 25.2686 	 -3.14859 	 -111.37 	 
C 	 24.016 	 -2.60495 	 -110.329 	 
C 	 23.3053 	 -3.59657 	 -109.739 	 
C 	 23.5345 	 -4.86414 	 -110.405 	 
C 	 24.5768 	 -4.78236 	 -111.315 	 
H 	 22.6102 	 -3.37778 	 -108.973 	 
C 	 22.8013 	 -6.10862 	 -109.995 	 
H 	 23.1721 	 -6.42153 	 -108.98 	 
H 	 23.0529 	 -6.98152 	 -110.676 	 
C 	 21.2767 	 -5.82967 	 -110.003 	 
H 	 21.0307 	 -5.66486 	 -111.029 	 
H 	 20.9835 	 -4.87701 	 -109.491 	 
C 	 20.5278 	 -7.00647 	 -109.434 	 
H 	 19.4203 	 -6.92124 	 -109.452 	 
H 	 20.7803 	 -7.11597 	 -108.408 	 
H 	 20.6873 	 -7.93642 	 -109.892 	 
H 	 27.6366 	 -7.81091 	 -113.887 	 
H 	 24.0638 	 -1.59682 	 -109.929 	 
