34

S 	 -2.28433 	 -24.3986 	 -109.081 	 
C 	 -1.2586 	 -23.4897 	 -110.139 	 
C 	 -0.486688 	 -24.3495 	 -110.923 	 
C 	 -0.639915 	 -25.7386 	 -110.543 	 
C 	 -1.53712 	 -25.9138 	 -109.548 	 
H 	 0.0384658 	 -26.4854 	 -110.96 	 
C 	 0.595767 	 -23.8145 	 -111.806 	 
H 	 0.579745 	 -22.7378 	 -111.882 	 
H 	 0.458285 	 -24.1937 	 -112.836 	 
C 	 2.08654 	 -24.1232 	 -111.457 	 
H 	 2.36409 	 -23.8109 	 -110.459 	 
H 	 2.1602 	 -25.2303 	 -111.5 	 
C 	 3.09573 	 -23.6369 	 -112.537 	 
H 	 3.23333 	 -22.5604 	 -112.412 	 
H 	 4.13775 	 -23.9008 	 -112.353 	 
H 	 2.80818 	 -23.8 	 -113.656 	 
S 	 -1.7245 	 -27.3474 	 -107.129 	 
C 	 -1.99195 	 -29.1191 	 -107.216 	 
C 	 -2.0672 	 -29.5428 	 -108.533 	 
C 	 -2.02704 	 -28.4891 	 -109.449 	 
C 	 -1.7189 	 -27.251 	 -108.895 	 
H 	 -2.14852 	 -30.6301 	 -108.78 	 
C 	 -2.00239 	 -28.8066 	 -110.946 	 
H 	 -1.91002 	 -27.8594 	 -111.463 	 
H 	 -2.97661 	 -29.2096 	 -111.194 	 
C 	 -0.933595 	 -29.8055 	 -111.318 	 
H 	 -1.261 	 -30.8018 	 -111.06 	 
H 	 0.00741127 	 -29.7678 	 -110.822 	 
C 	 -0.536184 	 -29.7519 	 -112.811 	 
H 	 -0.0280136 	 -30.7031 	 -113.154 	 
H 	 0.0623251 	 -28.8911 	 -113.071 	 
H 	 -1.42185 	 -29.7278 	 -113.436 	 
H 	 -1.2331 	 -22.3835 	 -110.268 	 
H 	 -2.09981 	 -29.7578 	 -106.332 	 
