34

S 	 -85.0414 	 -38.667 	 -72.7143 	 
C 	 -84.7748 	 -38.7501 	 -74.4136 	 
C 	 -83.7219 	 -39.5833 	 -74.7042 	 
C 	 -83.3969 	 -40.3865 	 -73.5883 	 
C 	 -84.0375 	 -40.0813 	 -72.4313 	 
H 	 -82.6774 	 -41.0893 	 -73.5192 	 
C 	 -82.9884 	 -39.6462 	 -75.9489 	 
H 	 -83.664 	 -39.8353 	 -76.8612 	 
H 	 -82.3284 	 -40.4693 	 -75.9941 	 
C 	 -82.0723 	 -38.4789 	 -76.4236 	 
H 	 -81.577 	 -38.7954 	 -77.3318 	 
H 	 -82.7707 	 -37.5909 	 -76.7096 	 
C 	 -81.0938 	 -38.1087 	 -75.3057 	 
H 	 -80.6126 	 -37.2058 	 -75.6396 	 
H 	 -81.5978 	 -37.9392 	 -74.3902 	 
H 	 -80.3793 	 -38.8109 	 -75.124 	 
S 	 -82.4825 	 -40.0657 	 -70.1505 	 
C 	 -82.7326 	 -41.2866 	 -68.9379 	 
C 	 -83.8162 	 -42.0402 	 -69.2092 	 
C 	 -84.4002 	 -41.7327 	 -70.5063 	 
C 	 -83.7928 	 -40.6361 	 -71.0991 	 
H 	 -84.2264 	 -42.7452 	 -68.5293 	 
C 	 -85.6462 	 -42.4207 	 -70.9904 	 
H 	 -86.2541 	 -41.7208 	 -71.5834 	 
H 	 -86.2462 	 -42.7447 	 -70.0974 	 
C 	 -85.474 	 -43.7414 	 -71.8104 	 
H 	 -86.4523 	 -44.1988 	 -71.867 	 
H 	 -84.9341 	 -44.556 	 -71.2121 	 
C 	 -84.862 	 -43.5852 	 -73.2486 	 
H 	 -84.533 	 -44.5619 	 -73.626 	 
H 	 -84.0187 	 -43.0098 	 -73.3114 	 
H 	 -85.4712 	 -43.1501 	 -74.0031 	 
H 	 -85.3514 	 -38.1164 	 -75.1129 	 
H 	 -82.1566 	 -41.5229 	 -68.0364 	 
