34

S 	 45.0873 	 -17.5927 	 -109.803 	 
C 	 46.8245 	 -17.234 	 -110.021 	 
C 	 47.5547 	 -17.9459 	 -109.111 	 
C 	 46.7913 	 -18.8771 	 -108.378 	 
C 	 45.4358 	 -18.8422 	 -108.66 	 
H 	 47.2569 	 -19.5909 	 -107.636 	 
C 	 49.0506 	 -17.8143 	 -108.909 	 
H 	 49.3561 	 -18.6423 	 -108.277 	 
H 	 49.1308 	 -17.0693 	 -108.133 	 
C 	 50.0156 	 -17.6949 	 -110.135 	 
H 	 49.8705 	 -16.8086 	 -110.676 	 
H 	 51.0223 	 -17.5974 	 -109.688 	 
C 	 49.9309 	 -18.9652 	 -111.137 	 
H 	 50.3921 	 -18.8308 	 -112.055 	 
H 	 50.3927 	 -19.7995 	 -110.613 	 
H 	 48.9378 	 -19.3411 	 -111.495 	 
S 	 43.0079 	 -19.0436 	 -107.486 	 
C 	 42.2454 	 -20.6164 	 -107.21 	 
C 	 43.0916 	 -21.6428 	 -107.647 	 
C 	 44.3438 	 -21.1698 	 -108.04 	 
C 	 44.4469 	 -19.7853 	 -108.084 	 
H 	 42.7079 	 -22.6201 	 -107.434 	 
C 	 45.44 	 -22.0285 	 -108.6 	 
H 	 45.7854 	 -22.776 	 -107.911 	 
H 	 46.3102 	 -21.3831 	 -108.717 	 
C 	 45.1901 	 -22.6998 	 -109.928 	 
H 	 44.1781 	 -23.238 	 -109.942 	 
H 	 45.9766 	 -23.4356 	 -110.096 	 
C 	 45.4159 	 -21.7886 	 -111.116 	 
H 	 44.4985 	 -21.1701 	 -111.199 	 
H 	 45.5098 	 -22.3854 	 -112.08 	 
H 	 46.1533 	 -21.0586 	 -110.929 	 
H 	 47.2418 	 -16.4395 	 -110.65 	 
H 	 41.2317 	 -20.7212 	 -106.785 	 
