34

S 	 35.4912 	 -30.0454 	 -132.899 	 
C 	 36.8393 	 -30.5752 	 -133.834 	 
C 	 37.494 	 -31.616 	 -133.203 	 
C 	 36.8584 	 -32.0514 	 -132.048 	 
C 	 35.7265 	 -31.289 	 -131.732 	 
H 	 37.0743 	 -32.863 	 -131.355 	 
C 	 38.6781 	 -32.3058 	 -133.806 	 
H 	 38.8624 	 -31.9137 	 -134.821 	 
H 	 38.368 	 -33.3508 	 -134.018 	 
C 	 39.9884 	 -32.1097 	 -132.974 	 
H 	 40.854 	 -32.2964 	 -133.682 	 
H 	 40.1113 	 -31.168 	 -132.481 	 
C 	 40.1717 	 -33.2056 	 -131.928 	 
H 	 41.0231 	 -32.9964 	 -131.232 	 
H 	 39.3039 	 -33.1566 	 -131.336 	 
H 	 40.2325 	 -34.1987 	 -132.275 	 
S 	 33.1773 	 -31.9833 	 -130.81 	 
C 	 32.8984 	 -32.014 	 -129.094 	 
C 	 34.0813 	 -31.9591 	 -128.375 	 
C 	 35.2303 	 -31.7162 	 -129.169 	 
C 	 34.8517 	 -31.525 	 -130.534 	 
H 	 34.1578 	 -32.0646 	 -127.286 	 
C 	 36.6017 	 -31.4878 	 -128.64 	 
H 	 36.5942 	 -30.9719 	 -127.714 	 
H 	 37.2246 	 -30.8946 	 -129.271 	 
C 	 37.3617 	 -32.8045 	 -128.392 	 
H 	 37.4406 	 -33.4092 	 -129.321 	 
H 	 36.7521 	 -33.3699 	 -127.638 	 
C 	 38.7643 	 -32.4632 	 -127.882 	 
H 	 39.4102 	 -33.2874 	 -128.181 	 
H 	 38.8756 	 -32.2785 	 -126.774 	 
H 	 39.1183 	 -31.6307 	 -128.512 	 
H 	 37.0712 	 -30.024 	 -134.768 	 
H 	 31.971 	 -32.1471 	 -128.581 	 
