34

S 	 -107.824 	 37.7918 	 -13.1533 	 
C 	 -107.401 	 38.62 	 -14.6788 	 
C 	 -106.091 	 39.063 	 -14.6135 	 
C 	 -105.477 	 38.7359 	 -13.3597 	 
C 	 -106.255 	 38.0724 	 -12.4301 	 
H 	 -104.461 	 38.9386 	 -13.0199 	 
C 	 -105.314 	 39.7568 	 -15.7789 	 
H 	 -104.979 	 38.9661 	 -16.4856 	 
H 	 -104.471 	 39.9894 	 -15.207 	 
C 	 -106.051 	 40.8266 	 -16.5676 	 
H 	 -106.726 	 40.3171 	 -17.2277 	 
H 	 -106.715 	 41.4182 	 -15.9518 	 
C 	 -105.003 	 41.78 	 -17.2586 	 
H 	 -104.447 	 42.4291 	 -16.5542 	 
H 	 -104.215 	 41.2644 	 -17.7896 	 
H 	 -105.487 	 42.3887 	 -18.0542 	 
S 	 -106.087 	 38.7397 	 -9.76278 	 
C 	 -105.46 	 37.4828 	 -8.73051 	 
C 	 -105.312 	 36.2608 	 -9.33603 	 
C 	 -105.461 	 36.3947 	 -10.7043 	 
C 	 -105.857 	 37.6998 	 -11.0957 	 
H 	 -104.958 	 35.3865 	 -8.80909 	 
C 	 -105.187 	 35.289 	 -11.6105 	 
H 	 -105.691 	 35.5161 	 -12.5225 	 
H 	 -105.727 	 34.4038 	 -11.1977 	 
C 	 -103.708 	 35.0749 	 -11.7443 	 
H 	 -103.285 	 34.7025 	 -10.7965 	 
H 	 -103.192 	 35.9992 	 -11.8773 	 
C 	 -103.377 	 34.027 	 -12.8314 	 
H 	 -103.558 	 34.6622 	 -13.7167 	 
H 	 -104 	 33.1704 	 -12.9235 	 
H 	 -102.372 	 33.6549 	 -12.9097 	 
H 	 -108.11 	 38.8297 	 -15.5012 	 
H 	 -105.146 	 37.6915 	 -7.71569 	 
