34

S 	 -132.899 	 68.9369 	 -60.6065 	 
C 	 -132.272 	 67.2584 	 -60.7928 	 
C 	 -133.392 	 66.4606 	 -60.9042 	 
C 	 -134.618 	 67.0928 	 -60.9083 	 
C 	 -134.516 	 68.4558 	 -60.8893 	 
H 	 -135.592 	 66.6895 	 -60.8839 	 
C 	 -133.248 	 64.8963 	 -60.9409 	 
H 	 -132.174 	 64.6646 	 -60.8619 	 
H 	 -133.538 	 64.5627 	 -61.9713 	 
C 	 -134.056 	 64.0621 	 -59.875 	 
H 	 -135.161 	 64.2304 	 -60.0413 	 
H 	 -133.905 	 62.9719 	 -59.9812 	 
C 	 -133.723 	 64.4697 	 -58.4322 	 
H 	 -132.599 	 64.5575 	 -58.2935 	 
H 	 -134.098 	 65.463 	 -58.32 	 
H 	 -134.077 	 63.7189 	 -57.7512 	 
S 	 -135.572 	 70.8107 	 -59.7447 	 
C 	 -137.248 	 71.1914 	 -60.2717 	 
C 	 -137.694 	 70.3778 	 -61.2471 	 
C 	 -136.775 	 69.3426 	 -61.6098 	 
C 	 -135.614 	 69.3987 	 -60.8421 	 
H 	 -138.632 	 70.6252 	 -61.6386 	 
C 	 -137.015 	 68.4375 	 -62.7711 	 
H 	 -138.086 	 68.1898 	 -62.8041 	 
H 	 -136.621 	 67.4297 	 -62.6917 	 
C 	 -136.475 	 68.9714 	 -64.1241 	 
H 	 -135.439 	 69.2452 	 -64.1002 	 
H 	 -137.058 	 69.8913 	 -64.3254 	 
C 	 -136.683 	 68.0745 	 -65.2959 	 
H 	 -137.8 	 68.1568 	 -65.4958 	 
H 	 -136.326 	 67.056 	 -65.0112 	 
H 	 -136.274 	 68.4503 	 -66.2116 	 
H 	 -131.254 	 66.9703 	 -60.6792 	 
H 	 -137.881 	 72.0584 	 -59.9382 	 
