34

S 	 -133.266 	 29.0468 	 -13.7193 	 
C 	 -131.917 	 28.463 	 -14.7779 	 
C 	 -132.382 	 28.1127 	 -16.0228 	 
C 	 -133.777 	 28.5401 	 -16.1913 	 
C 	 -134.354 	 29.0852 	 -15.0475 	 
H 	 -134.371 	 28.5433 	 -17.1008 	 
C 	 -131.442 	 27.4923 	 -17.0268 	 
H 	 -131.059 	 26.507 	 -16.6425 	 
H 	 -130.644 	 28.2089 	 -17.2335 	 
C 	 -132.073 	 27.282 	 -18.4188 	 
H 	 -132.837 	 26.5765 	 -18.2508 	 
H 	 -132.588 	 28.2125 	 -18.6506 	 
C 	 -131.177 	 26.8008 	 -19.4761 	 
H 	 -131.886 	 26.4593 	 -20.2643 	 
H 	 -130.585 	 27.6254 	 -19.8978 	 
H 	 -130.574 	 26.0096 	 -19.0584 	 
S 	 -136.056 	 31.1007 	 -15.784 	 
C 	 -137.578 	 31.2136 	 -15.0316 	 
C 	 -137.866 	 30.1616 	 -14.1837 	 
C 	 -136.78 	 29.2314 	 -14.1194 	 
C 	 -135.707 	 29.6155 	 -14.9326 	 
H 	 -138.761 	 30.2482 	 -13.6639 	 
C 	 -136.75 	 28.0123 	 -13.2028 	 
H 	 -136.594 	 28.4162 	 -12.2473 	 
H 	 -135.744 	 27.5169 	 -13.372 	 
C 	 -137.872 	 26.9732 	 -13.3354 	 
H 	 -137.988 	 26.7685 	 -14.4476 	 
H 	 -138.812 	 27.3722 	 -12.9545 	 
C 	 -137.685 	 25.6998 	 -12.5377 	 
H 	 -138.486 	 25.0775 	 -12.5663 	 
H 	 -137.633 	 26.012 	 -11.4858 	 
H 	 -136.79 	 25.1457 	 -12.7646 	 
H 	 -130.924 	 28.3705 	 -14.4167 	 
H 	 -138.26 	 32.015 	 -15.2024 	 
