34

S 	 -65.9758 	 7.40782 	 -100.952 	 
C 	 -64.857 	 7.85032 	 -99.7713 	 
C 	 -65.5226 	 8.5518 	 -98.7293 	 
C 	 -66.9297 	 8.40826 	 -98.7145 	 
C 	 -67.3012 	 7.60839 	 -99.7819 	 
H 	 -67.681 	 8.88738 	 -98.0612 	 
C 	 -64.8572 	 9.33644 	 -97.6392 	 
H 	 -63.7864 	 9.27792 	 -97.7441 	 
H 	 -64.9632 	 9.00723 	 -96.6358 	 
C 	 -65.1765 	 10.8436 	 -97.5829 	 
H 	 -66.2984 	 10.9683 	 -97.4783 	 
H 	 -64.8558 	 11.3944 	 -96.7334 	 
C 	 -64.8002 	 11.681 	 -98.759 	 
H 	 -65.2159 	 11.3114 	 -99.7704 	 
H 	 -65.131 	 12.6556 	 -98.4984 	 
H 	 -63.7024 	 11.7416 	 -98.9174 	 
S 	 -69.1012 	 7.4818 	 -101.88 	 
C 	 -70.7581 	 7.45048 	 -101.617 	 
C 	 -71.0382 	 7.51073 	 -100.249 	 
C 	 -69.8943 	 7.34337 	 -99.4209 	 
C 	 -68.739 	 7.52335 	 -100.146 	 
H 	 -72.0913 	 7.33689 	 -99.9579 	 
C 	 -70.021 	 7.22262 	 -97.9526 	 
H 	 -70.3923 	 8.26123 	 -97.6388 	 
H 	 -69.0303 	 7.07836 	 -97.533 	 
C 	 -70.9729 	 6.19291 	 -97.2981 	 
H 	 -70.6223 	 5.25239 	 -97.7152 	 
H 	 -71.904 	 6.35433 	 -97.7339 	 
C 	 -70.8197 	 6.10269 	 -95.7207 	 
H 	 -71.3506 	 5.24993 	 -95.3639 	 
H 	 -71.2001 	 6.92748 	 -95.2218 	 
H 	 -69.8086 	 6.0618 	 -95.3109 	 
H 	 -63.7952 	 7.79616 	 -99.8544 	 
H 	 -71.5896 	 7.44387 	 -102.356 	 
