34

S 	 -70.2132 	 19.5106 	 -108.762 	 
C 	 -69.5729 	 18.9898 	 -107.236 	 
C 	 -68.4812 	 18.1157 	 -107.345 	 
C 	 -68.1172 	 18.0376 	 -108.688 	 
C 	 -68.9113 	 18.7518 	 -109.537 	 
H 	 -67.3235 	 17.4122 	 -109.156 	 
C 	 -67.6638 	 17.4495 	 -106.267 	 
H 	 -67.1852 	 18.1176 	 -105.542 	 
H 	 -66.8505 	 17.0798 	 -106.83 	 
C 	 -68.3876 	 16.3635 	 -105.448 	 
H 	 -69.2307 	 16.9129 	 -104.969 	 
H 	 -68.9165 	 15.6583 	 -106.195 	 
C 	 -67.487 	 15.6673 	 -104.417 	 
H 	 -68.1263 	 15.0759 	 -103.795 	 
H 	 -66.744 	 15.2328 	 -105.031 	 
H 	 -67.0027 	 16.2873 	 -103.656 	 
S 	 -67.4601 	 19.6735 	 -111.59 	 
C 	 -67.9571 	 19.4014 	 -113.253 	 
C 	 -69.1903 	 18.8057 	 -113.293 	 
C 	 -69.5989 	 18.2939 	 -112.028 	 
C 	 -68.8251 	 18.7794 	 -110.987 	 
H 	 -69.5684 	 18.6333 	 -114.318 	 
C 	 -70.8662 	 17.3767 	 -111.902 	 
H 	 -71.5632 	 17.5974 	 -112.695 	 
H 	 -71.4299 	 17.7812 	 -111.054 	 
C 	 -70.6783 	 15.8553 	 -111.798 	 
H 	 -69.8997 	 15.7398 	 -111.057 	 
H 	 -70.3297 	 15.3707 	 -112.702 	 
C 	 -71.9228 	 15.1136 	 -111.327 	 
H 	 -72.7825 	 15.3811 	 -111.951 	 
H 	 -72.2915 	 15.5523 	 -110.381 	 
H 	 -71.7358 	 14.0313 	 -111.148 	 
H 	 -70.1251 	 19.0896 	 -106.323 	 
H 	 -67.5293 	 19.7522 	 -114.109 	 
