34

S 	 -137.895 	 6.89758 	 -1.82601 	 
C 	 -138.2 	 6.57423 	 -0.106648 	 
C 	 -137.459 	 7.44242 	 0.677018 	 
C 	 -136.87 	 8.49408 	 -0.111966 	 
C 	 -137.032 	 8.33663 	 -1.51349 	 
H 	 -136.217 	 9.22563 	 0.29985 	 
C 	 -137.075 	 7.30522 	 2.19157 	 
H 	 -136.026 	 7.60201 	 2.41478 	 
H 	 -137.16 	 6.2311 	 2.3778 	 
C 	 -138.036 	 8.0349 	 3.13534 	 
H 	 -137.71 	 8.01769 	 4.12571 	 
H 	 -138.134 	 9.11264 	 2.8733 	 
C 	 -139.524 	 7.57877 	 3.20483 	 
H 	 -139.537 	 6.51974 	 3.43663 	 
H 	 -140.332 	 8.02812 	 3.84125 	 
H 	 -139.801 	 7.80928 	 2.16047 	 
S 	 -135.669 	 8.46503 	 -3.79684 	 
C 	 -135.351 	 10.0049 	 -4.44657 	 
C 	 -135.963 	 11.0397 	 -3.75531 	 
C 	 -136.586 	 10.6234 	 -2.53188 	 
C 	 -136.514 	 9.25416 	 -2.51741 	 
H 	 -135.967 	 12.0618 	 -4.08388 	 
C 	 -137.289 	 11.5809 	 -1.63959 	 
H 	 -136.686 	 12.4604 	 -1.38799 	 
H 	 -137.385 	 11.1232 	 -0.634578 	 
C 	 -138.71 	 11.9388 	 -2.01872 	 
H 	 -139.274 	 11.0235 	 -2.26473 	 
H 	 -138.74 	 12.6027 	 -2.94166 	 
C 	 -139.447 	 12.7012 	 -0.92666 	 
H 	 -139.875 	 11.9185 	 -0.222881 	 
H 	 -140.276 	 13.3342 	 -1.30172 	 
H 	 -138.714 	 13.3072 	 -0.365032 	 
H 	 -138.773 	 5.7311 	 0.288513 	 
H 	 -134.859 	 10.0954 	 -5.39486 	 
