34

S 	 -140.474 	 24.3201 	 -21.3942 	 
C 	 -141.34 	 22.9014 	 -20.9347 	 
C 	 -142.631 	 23.2147 	 -20.4205 	 
C 	 -142.729 	 24.6094 	 -20.1572 	 
C 	 -141.601 	 25.3269 	 -20.5638 	 
H 	 -143.582 	 25.0875 	 -19.7664 	 
C 	 -143.772 	 22.3057 	 -20.2219 	 
H 	 -144.059 	 22.3705 	 -19.1398 	 
H 	 -143.515 	 21.2632 	 -20.281 	 
C 	 -144.896 	 22.4517 	 -21.2346 	 
H 	 -145.176 	 23.4847 	 -21.3095 	 
H 	 -144.454 	 22.1172 	 -22.1198 	 
C 	 -146.081 	 21.561 	 -20.772 	 
H 	 -145.737 	 20.5187 	 -20.6009 	 
H 	 -146.44 	 21.9017 	 -19.8344 	 
H 	 -146.958 	 21.5491 	 -21.5105 	 
S 	 -140.758 	 27.6278 	 -21.7844 	 
C 	 -140.892 	 29.1398 	 -20.9673 	 
C 	 -141.377 	 28.9768 	 -19.6995 	 
C 	 -141.579 	 27.6072 	 -19.3076 	 
C 	 -141.409 	 26.7647 	 -20.4178 	 
H 	 -141.542 	 29.9107 	 -19.1583 	 
C 	 -142.024 	 27.2325 	 -17.8896 	 
H 	 -143.011 	 26.809 	 -17.9819 	 
H 	 -142.169 	 28.1891 	 -17.3269 	 
C 	 -141.038 	 26.3354 	 -17.1792 	 
H 	 -140.04 	 26.6823 	 -17.0441 	 
H 	 -140.851 	 25.4001 	 -17.7437 	 
C 	 -141.568 	 25.895 	 -15.7715 	 
H 	 -140.709 	 25.445 	 -15.2597 	 
H 	 -142.333 	 25.112 	 -15.7747 	 
H 	 -141.905 	 26.7529 	 -15.1689 	 
H 	 -141.149 	 21.7726 	 -21.1564 	 
H 	 -140.824 	 30.0911 	 -21.3533 	 
