34

S 	 -53.2953 	 20.2358 	 -94.271 	 
C 	 -52.0051 	 20.6132 	 -93.1995 	 
C 	 -50.8517 	 21.0559 	 -93.8042 	 
C 	 -50.9527 	 20.9259 	 -95.2012 	 
C 	 -52.2037 	 20.4586 	 -95.6972 	 
H 	 -50.1898 	 21.161 	 -95.8681 	 
C 	 -49.5654 	 21.3251 	 -93.1092 	 
H 	 -49.8587 	 21.0495 	 -92.0791 	 
H 	 -49.3787 	 22.3783 	 -93.2722 	 
C 	 -48.4229 	 20.3574 	 -93.4246 	 
H 	 -48.041 	 20.7321 	 -94.3801 	 
H 	 -47.6868 	 20.4879 	 -92.6426 	 
C 	 -48.872 	 18.8421 	 -93.6403 	 
H 	 -49.5296 	 18.8486 	 -94.5218 	 
H 	 -48.1201 	 18.133 	 -93.8392 	 
H 	 -49.412 	 18.4874 	 -92.7578 	 
S 	 -54.3268 	 19.6885 	 -97.2576 	 
C 	 -54.2596 	 19.7997 	 -99.0069 	 
C 	 -53.033 	 20.4038 	 -99.3536 	 
C 	 -52.1479 	 20.7821 	 -98.2585 	 
C 	 -52.7648 	 20.4806 	 -97.0315 	 
H 	 -52.6922 	 20.4317 	 -100.381 	 
C 	 -50.7401 	 21.2693 	 -98.5119 	 
H 	 -50.0888 	 20.435 	 -98.2288 	 
H 	 -50.4606 	 22.1071 	 -97.8004 	 
C 	 -50.3291 	 21.8378 	 -99.8782 	 
H 	 -50.8606 	 22.8306 	 -100.051 	 
H 	 -50.7061 	 21.1953 	 -100.683 	 
C 	 -48.8545 	 21.9926 	 -99.9298 	 
H 	 -48.5613 	 22.5955 	 -100.855 	 
H 	 -48.3757 	 21.0354 	 -99.9816 	 
H 	 -48.5374 	 22.5311 	 -99.045 	 
H 	 -52.0882 	 20.4684 	 -92.1382 	 
H 	 -55.0321 	 19.4027 	 -99.7038 	 
