34

S 	 -105.854 	 36.7202 	 -11.5505 	 
C 	 -105.514 	 37.2824 	 -13.209 	 
C 	 -106.064 	 36.4491 	 -14.1658 	 
C 	 -106.664 	 35.3096 	 -13.5347 	 
C 	 -106.568 	 35.2476 	 -12.1373 	 
H 	 -107.178 	 34.469 	 -13.9934 	 
C 	 -105.988 	 36.5785 	 -15.6464 	 
H 	 -106.675 	 35.8507 	 -16.1114 	 
H 	 -104.993 	 36.1548 	 -15.9948 	 
C 	 -106.227 	 37.9783 	 -16.2669 	 
H 	 -107.06 	 38.418 	 -15.7076 	 
H 	 -105.269 	 38.6125 	 -16.093 	 
C 	 -106.593 	 37.896 	 -17.7057 	 
H 	 -107.445 	 37.1656 	 -17.7612 	 
H 	 -106.922 	 38.8914 	 -18.1119 	 
H 	 -105.929 	 37.3559 	 -18.3223 	 
S 	 -107.657 	 34.7061 	 -9.63875 	 
C 	 -108.262 	 33.0083 	 -9.23245 	 
C 	 -107.86 	 32.1523 	 -10.1921 	 
C 	 -107.33 	 32.8397 	 -11.3091 	 
C 	 -107.157 	 34.2577 	 -11.2041 	 
H 	 -108.162 	 31.1685 	 -10.1889 	 
C 	 -106.985 	 31.9976 	 -12.568 	 
H 	 -107.274 	 32.5323 	 -13.5022 	 
H 	 -107.546 	 31.0855 	 -12.5319 	 
C 	 -105.532 	 31.6567 	 -12.7604 	 
H 	 -105.27 	 31.166 	 -11.7949 	 
H 	 -104.948 	 32.6054 	 -12.7041 	 
C 	 -105.207 	 30.7123 	 -13.9679 	 
H 	 -105.626 	 29.7 	 -13.8913 	 
H 	 -104.155 	 30.492 	 -14.1059 	 
H 	 -105.535 	 31.0656 	 -14.9403 	 
H 	 -105.017 	 38.2006 	 -13.3822 	 
H 	 -108.792 	 32.7054 	 -8.3361 	 
