34

S 	 -109.914 	 26.5355 	 -113.464 	 
C 	 -109.352 	 25.3118 	 -112.342 	 
C 	 -109.947 	 24.0448 	 -112.556 	 
C 	 -110.879 	 24.1232 	 -113.649 	 
C 	 -110.985 	 25.3576 	 -114.246 	 
H 	 -111.486 	 23.2736 	 -113.889 	 
C 	 -109.768 	 22.7313 	 -111.698 	 
H 	 -110.2 	 21.9543 	 -112.35 	 
H 	 -110.418 	 22.7184 	 -110.758 	 
C 	 -108.267 	 22.3659 	 -111.349 	 
H 	 -107.801 	 23.1226 	 -110.74 	 
H 	 -108.408 	 21.3873 	 -110.849 	 
C 	 -107.274 	 22.2326 	 -112.478 	 
H 	 -107.035 	 23.1952 	 -112.887 	 
H 	 -106.391 	 21.8259 	 -111.981 	 
H 	 -107.527 	 21.5378 	 -113.229 	 
S 	 -113.339 	 26.8856 	 -114.554 	 
C 	 -114.116 	 26.8486 	 -116.096 	 
C 	 -113.605 	 25.8749 	 -116.906 	 
C 	 -112.392 	 25.3019 	 -116.382 	 
C 	 -112.11 	 25.7468 	 -115.119 	 
H 	 -114.035 	 25.6147 	 -117.87 	 
C 	 -111.492 	 24.3618 	 -117.245 	 
H 	 -112.043 	 23.4215 	 -117.272 	 
H 	 -110.575 	 24.1257 	 -116.611 	 
C 	 -111.093 	 24.8604 	 -118.652 	 
H 	 -111.975 	 25.0242 	 -119.27 	 
H 	 -110.446 	 24.113 	 -119.033 	 
C 	 -110.357 	 26.2365 	 -118.608 	 
H 	 -111.1 	 26.9986 	 -118.389 	 
H 	 -109.854 	 26.4831 	 -119.525 	 
H 	 -109.694 	 26.1991 	 -117.772 	 
H 	 -108.635 	 25.4864 	 -111.529 	 
H 	 -115.077 	 27.3438 	 -116.225 	 
