34

S 	 -53.8999 	 17.0572 	 28.793 	 
C 	 -55.1949 	 16.1538 	 28.1728 	 
C 	 -54.8072 	 14.9191 	 27.6811 	 
C 	 -53.3387 	 14.8388 	 27.6376 	 
C 	 -52.7121 	 15.9873 	 28.121 	 
H 	 -52.7859 	 14.0281 	 27.1973 	 
C 	 -55.6919 	 13.7343 	 27.2441 	 
H 	 -56.2695 	 14.0557 	 26.365 	 
H 	 -56.4584 	 13.6203 	 28.0811 	 
C 	 -55.0024 	 12.4055 	 26.969 	 
H 	 -54.1896 	 12.4963 	 26.2541 	 
H 	 -54.5864 	 12.0711 	 27.9151 	 
C 	 -55.928 	 11.3033 	 26.3174 	 
H 	 -55.3508 	 10.473 	 25.9484 	 
H 	 -56.6549 	 11.0281 	 27.1145 	 
H 	 -56.5514 	 11.8353 	 25.5938 	 
S 	 -50.2475 	 14.8709 	 28.5988 	 
C 	 -48.8438 	 15.7444 	 28.3125 	 
C 	 -49.1212 	 17.083 	 27.9716 	 
C 	 -50.558 	 17.3959 	 27.9123 	 
C 	 -51.2979 	 16.237 	 28.1063 	 
H 	 -48.1616 	 17.6756 	 27.7965 	 
C 	 -51.1205 	 18.7229 	 27.5242 	 
H 	 -52.0298 	 18.5609 	 26.9214 	 
H 	 -50.4639 	 19.349 	 26.9352 	 
C 	 -51.46 	 19.6934 	 28.6621 	 
H 	 -52.3451 	 19.2637 	 29.1053 	 
H 	 -51.6318 	 20.7577 	 28.34 	 
C 	 -50.3665 	 19.9425 	 29.6059 	 
H 	 -50.6082 	 20.7363 	 30.2991 	 
H 	 -49.4288 	 20.1933 	 29.1508 	 
H 	 -50.1488 	 19.0458 	 30.1818 	 
H 	 -56.2005 	 16.4065 	 28.2009 	 
H 	 -47.8324 	 15.4102 	 28.404 	 
