34

S 	 -75.8615 	 1.72096 	 -110.303 	 
C 	 -77.1404 	 2.82967 	 -110.687 	 
C 	 -76.8608 	 4.12747 	 -110.201 	 
C 	 -75.6492 	 4.13974 	 -109.415 	 
C 	 -75.0196 	 2.94388 	 -109.335 	 
H 	 -75.2133 	 5.04771 	 -108.996 	 
C 	 -77.5645 	 5.40569 	 -110.68 	 
H 	 -77.6563 	 5.44818 	 -111.771 	 
H 	 -76.9244 	 6.19776 	 -110.496 	 
C 	 -78.8466 	 5.54008 	 -109.915 	 
H 	 -79.5327 	 4.63542 	 -110.062 	 
H 	 -78.6743 	 5.69896 	 -108.831 	 
C 	 -79.7265 	 6.68802 	 -110.333 	 
H 	 -80.2975 	 6.46516 	 -111.241 	 
H 	 -80.4876 	 6.83583 	 -109.536 	 
H 	 -79.1513 	 7.60408 	 -110.421 	 
S 	 -72.5089 	 3.84153 	 -109.048 	 
C 	 -71.3759 	 3.05078 	 -107.949 	 
C 	 -71.9287 	 1.83135 	 -107.617 	 
C 	 -73.3349 	 1.61424 	 -107.917 	 
C 	 -73.7293 	 2.67272 	 -108.699 	 
H 	 -71.2287 	 1.14621 	 -107.13 	 
C 	 -74.0132 	 0.327339 	 -107.618 	 
H 	 -75.0543 	 0.718034 	 -107.516 	 
H 	 -73.788 	 -0.140499 	 -106.657 	 
C 	 -73.835 	 -0.684831 	 -108.78 	 
H 	 -72.7395 	 -0.802567 	 -108.927 	 
H 	 -74.3864 	 -0.332018 	 -109.666 	 
C 	 -74.4956 	 -2.03177 	 -108.509 	 
H 	 -74.1038 	 -2.58497 	 -107.667 	 
H 	 -74.3688 	 -2.64319 	 -109.412 	 
H 	 -75.5797 	 -1.9105 	 -108.313 	 
H 	 -78.0109 	 2.66546 	 -111.308 	 
H 	 -70.313 	 3.22437 	 -107.843 	 
