34

S 	 -39.141 	 -50.2923 	 -74.5072 	 
C 	 -39.3781 	 -48.7084 	 -75.2555 	 
C 	 -39.1902 	 -47.6325 	 -74.3814 	 
C 	 -38.8507 	 -48.1195 	 -73.0828 	 
C 	 -38.8311 	 -49.4641 	 -72.9535 	 
H 	 -38.4001 	 -47.5019 	 -72.3275 	 
C 	 -39.0592 	 -46.1297 	 -74.7042 	 
H 	 -38.6393 	 -46.0688 	 -75.6962 	 
H 	 -38.2755 	 -45.6902 	 -74.0128 	 
C 	 -40.3867 	 -45.2975 	 -74.6865 	 
H 	 -40.1905 	 -44.278 	 -74.8944 	 
H 	 -40.9841 	 -45.5862 	 -75.5601 	 
C 	 -41.1315 	 -45.451 	 -73.4026 	 
H 	 -40.578 	 -44.8255 	 -72.6523 	 
H 	 -42.1213 	 -45.011 	 -73.5234 	 
H 	 -41.2658 	 -46.5006 	 -72.9422 	 
S 	 -36.6852 	 -50.8569 	 -71.8601 	 
C 	 -36.6997 	 -51.1182 	 -70.1354 	 
C 	 -37.8132 	 -50.5916 	 -69.4993 	 
C 	 -38.7074 	 -49.9399 	 -70.4528 	 
C 	 -38.3034 	 -50.1058 	 -71.7759 	 
H 	 -37.9336 	 -50.7204 	 -68.4524 	 
C 	 -39.9624 	 -49.334 	 -70.0343 	 
H 	 -40.4706 	 -48.9311 	 -70.9108 	 
H 	 -39.744 	 -48.5116 	 -69.4044 	 
C 	 -41.0444 	 -50.3553 	 -69.5237 	 
H 	 -40.7992 	 -50.6157 	 -68.4665 	 
H 	 -40.9168 	 -51.3686 	 -70.0138 	 
C 	 -42.4547 	 -49.8769 	 -69.6606 	 
H 	 -42.7746 	 -49.7281 	 -70.6867 	 
H 	 -42.6617 	 -48.9455 	 -69.0864 	 
H 	 -43.0991 	 -50.6936 	 -69.3334 	 
H 	 -39.4401 	 -48.5431 	 -76.3145 	 
H 	 -35.8525 	 -51.3726 	 -69.5637 	 
