34

S 	 -87.1353 	 4.55 	 -115.82 	 
C 	 -86.8811 	 3.02122 	 -114.982 	 
C 	 -87.8291 	 2.04895 	 -115.318 	 
C 	 -88.8237 	 2.60008 	 -116.16 	 
C 	 -88.6062 	 3.9201 	 -116.463 	 
H 	 -89.7052 	 2.09742 	 -116.548 	 
C 	 -87.8185 	 0.628012 	 -114.718 	 
H 	 -87.0803 	 0.567596 	 -113.905 	 
H 	 -87.296 	 0.101935 	 -115.534 	 
C 	 -89.2195 	 0.113953 	 -114.338 	 
H 	 -89.1237 	 -0.464339 	 -113.367 	 
H 	 -89.8635 	 0.898902 	 -114.06 	 
C 	 -89.8951 	 -0.631311 	 -115.545 	 
H 	 -89.9177 	 -0.0297284 	 -116.421 	 
H 	 -89.3591 	 -1.56296 	 -115.654 	 
H 	 -90.9035 	 -0.932041 	 -115.231 	 
S 	 -88.7452 	 6.13905 	 -118.143 	 
C 	 -90.1766 	 6.60381 	 -118.907 	 
C 	 -91.2054 	 5.80249 	 -118.429 	 
C 	 -90.832 	 4.71226 	 -117.548 	 
C 	 -89.4849 	 4.76834 	 -117.268 	 
H 	 -92.2092 	 5.96383 	 -118.804 	 
C 	 -91.8236 	 3.81411 	 -116.958 	 
H 	 -91.5066 	 3.5918 	 -115.93 	 
H 	 -91.9225 	 2.92655 	 -117.58 	 
C 	 -93.2756 	 4.30419 	 -116.829 	 
H 	 -93.8304 	 4.24491 	 -117.814 	 
H 	 -93.2463 	 5.33265 	 -116.528 	 
C 	 -94.0594 	 3.64898 	 -115.628 	 
H 	 -95.0246 	 4.08625 	 -115.579 	 
H 	 -93.6146 	 3.73649 	 -114.639 	 
H 	 -94.1704 	 2.55193 	 -115.783 	 
H 	 -86.0174 	 2.73345 	 -114.446 	 
H 	 -90.2891 	 7.47333 	 -119.5 	 
