34

S 	 -149.301 	 12.7014 	 -6.67295 	 
C 	 -148.628 	 11.3235 	 -7.44714 	 
C 	 -148.077 	 11.5797 	 -8.74914 	 
C 	 -148.341 	 12.9679 	 -9.03347 	 
C 	 -148.984 	 13.6845 	 -8.05638 	 
H 	 -147.852 	 13.4833 	 -9.89381 	 
C 	 -147.343 	 10.6335 	 -9.6352 	 
H 	 -147.788 	 10.3127 	 -10.5915 	 
H 	 -147.206 	 9.71746 	 -8.98755 	 
C 	 -146.014 	 11.2107 	 -10.1586 	 
H 	 -145.483 	 10.4945 	 -10.7719 	 
H 	 -146.244 	 12.0658 	 -10.8391 	 
C 	 -145.121 	 11.6728 	 -8.9669 	 
H 	 -144.719 	 10.7747 	 -8.5089 	 
H 	 -144.366 	 12.3325 	 -9.25762 	 
H 	 -145.584 	 12.2429 	 -8.17238 	 
S 	 -147.951 	 16.1947 	 -7.38325 	 
C 	 -149.081 	 17.4745 	 -7.53409 	 
C 	 -150.228 	 17.1537 	 -8.18216 	 
C 	 -150.223 	 15.7988 	 -8.59879 	 
C 	 -149.197 	 15.1071 	 -8.03086 	 
H 	 -151.012 	 17.852 	 -8.23013 	 
C 	 -151.421 	 15.2796 	 -9.40461 	 
H 	 -151.01 	 14.9668 	 -10.4119 	 
H 	 -152.017 	 16.0887 	 -9.54331 	 
C 	 -152.393 	 14.2902 	 -8.71087 	 
H 	 -151.809 	 13.4683 	 -8.36994 	 
H 	 -153.147 	 13.9111 	 -9.42041 	 
C 	 -153.123 	 15.0353 	 -7.57918 	 
H 	 -153.766 	 15.8575 	 -7.76783 	 
H 	 -152.361 	 15.3302 	 -6.77477 	 
H 	 -153.829 	 14.3793 	 -7.1612 	 
H 	 -148.614 	 10.3969 	 -6.89904 	 
H 	 -148.919 	 18.499 	 -7.31886 	 
