34

S 	 -71.1241 	 1.14525 	 -105.65 	 
C 	 -71.0999 	 2.15022 	 -104.272 	 
C 	 -70.7079 	 3.47411 	 -104.558 	 
C 	 -70.6885 	 3.73135 	 -105.963 	 
C 	 -71.0024 	 2.55183 	 -106.716 	 
H 	 -70.6403 	 4.67514 	 -106.442 	 
C 	 -70.4038 	 4.48962 	 -103.506 	 
H 	 -70.2535 	 3.97644 	 -102.59 	 
H 	 -71.2482 	 5.16844 	 -103.459 	 
C 	 -69.2524 	 5.48525 	 -103.863 	 
H 	 -68.3215 	 4.84944 	 -104.042 	 
H 	 -69.6445 	 6.01921 	 -104.681 	 
C 	 -68.9388 	 6.39143 	 -102.661 	 
H 	 -68.4744 	 5.96517 	 -101.737 	 
H 	 -68.3794 	 7.29051 	 -103.038 	 
H 	 -69.968 	 6.7443 	 -102.453 	 
S 	 -72.7639 	 1.43124 	 -108.602 	 
C 	 -72.3052 	 1.35082 	 -110.308 	 
C 	 -71.2038 	 2.1496 	 -110.53 	 
C 	 -70.5969 	 2.66754 	 -109.362 	 
C 	 -71.2812 	 2.31541 	 -108.168 	 
H 	 -70.8906 	 2.29086 	 -111.561 	 
C 	 -69.2662 	 3.40115 	 -109.427 	 
H 	 -69.424 	 4.44893 	 -109.149 	 
H 	 -68.7982 	 3.47452 	 -110.362 	 
C 	 -68.1869 	 2.80219 	 -108.47 	 
H 	 -68.3793 	 1.7199 	 -108.326 	 
H 	 -68.2137 	 3.14404 	 -107.488 	 
C 	 -66.7608 	 3.0425 	 -108.977 	 
H 	 -66.6271 	 4.13639 	 -108.998 	 
H 	 -66.6762 	 2.68933 	 -109.993 	 
H 	 -66.0711 	 2.57158 	 -108.318 	 
H 	 -70.8665 	 1.8336 	 -103.26 	 
H 	 -72.8409 	 0.793366 	 -111.099 	 
