34

S 	 -38.1503 	 17.7789 	 11.5689 	 
C 	 -38.0222 	 16.3096 	 12.4458 	 
C 	 -37.6957 	 16.4953 	 13.7764 	 
C 	 -37.3451 	 17.8928 	 13.9903 	 
C 	 -37.2661 	 18.6358 	 12.7981 	 
H 	 -37.0861 	 18.3367 	 14.8622 	 
C 	 -37.6783 	 15.3883 	 14.8359 	 
H 	 -38.3932 	 14.6085 	 14.6178 	 
H 	 -38.148 	 15.9134 	 15.6904 	 
C 	 -36.2617 	 14.8118 	 15.0353 	 
H 	 -35.8905 	 14.29 	 14.1549 	 
H 	 -35.6693 	 15.6849 	 15.1384 	 
C 	 -36.2975 	 13.9233 	 16.2688 	 
H 	 -36.934 	 13.0528 	 16.0371 	 
H 	 -35.2398 	 13.6428 	 16.5271 	 
H 	 -36.6475 	 14.4292 	 17.1101 	 
S 	 -37.8809 	 21.2862 	 12.2889 	 
C 	 -36.6485 	 22.5353 	 12.4418 	 
C 	 -35.5224 	 21.9995 	 12.9369 	 
C 	 -35.5665 	 20.5812 	 13.1575 	 
C 	 -36.8148 	 20.0275 	 12.7284 	 
H 	 -34.6882 	 22.6639 	 12.9726 	 
C 	 -34.4136 	 19.696 	 13.5847 	 
H 	 -33.6081 	 19.7713 	 12.8933 	 
H 	 -34.6734 	 18.6552 	 13.6723 	 
C 	 -33.8497 	 19.9853 	 14.9712 	 
H 	 -32.9545 	 20.6774 	 14.8875 	 
H 	 -33.4994 	 19.0319 	 15.4046 	 
C 	 -35.0117 	 20.3299 	 15.9474 	 
H 	 -35.3882 	 21.3183 	 15.7051 	 
H 	 -34.5638 	 20.5097 	 16.9189 	 
H 	 -35.7213 	 19.5081 	 16.0659 	 
H 	 -38.096 	 15.2699 	 12.1652 	 
H 	 -36.747 	 23.6355 	 12.349 	 
