34

S 	 36.6455 	 -6.19921 	 -123.339 	 
C 	 35.9475 	 -6.95411 	 -124.76 	 
C 	 34.59 	 -6.6559 	 -124.889 	 
C 	 34.1842 	 -5.87832 	 -123.797 	 
C 	 35.1412 	 -5.47582 	 -122.897 	 
H 	 33.1416 	 -5.65372 	 -123.59 	 
C 	 33.6295 	 -7.2194 	 -125.963 	 
H 	 33.1203 	 -7.9849 	 -125.523 	 
H 	 34.3184 	 -7.66805 	 -126.639 	 
C 	 32.8263 	 -6.23278 	 -126.778 	 
H 	 32.2149 	 -5.54992 	 -126.143 	 
H 	 33.4255 	 -5.52622 	 -127.254 	 
C 	 31.8757 	 -6.86636 	 -127.721 	 
H 	 32.5525 	 -7.26575 	 -128.522 	 
H 	 31.246 	 -7.60156 	 -127.317 	 
H 	 31.2821 	 -6.14255 	 -128.243 	 
S 	 33.7992 	 -5.32541 	 -120.463 	 
C 	 34.1823 	 -4.07078 	 -119.35 	 
C 	 35.2766 	 -3.32132 	 -119.736 	 
C 	 35.7916 	 -3.70071 	 -121.004 	 
C 	 34.9976 	 -4.75869 	 -121.593 	 
H 	 35.6488 	 -2.4492 	 -119.138 	 
C 	 37.0025 	 -3.02832 	 -121.592 	 
H 	 37.4817 	 -3.62463 	 -122.302 	 
H 	 37.6852 	 -2.9967 	 -120.818 	 
C 	 36.7268 	 -1.70548 	 -122.227 	 
H 	 36.0109 	 -1.1902 	 -121.655 	 
H 	 36.3648 	 -1.96886 	 -123.201 	 
C 	 37.9995 	 -0.834058 	 -122.403 	 
H 	 38.2744 	 -0.474209 	 -121.483 	 
H 	 37.7109 	 -0.0724494 	 -123.046 	 
H 	 38.8088 	 -1.48289 	 -122.879 	 
H 	 36.3677 	 -7.70519 	 -125.381 	 
H 	 33.5239 	 -3.99076 	 -118.491 	 
