34

S 	 -74.122 	 -44.7709 	 -92.4717 	 
C 	 -73.76 	 -43.1607 	 -91.9603 	 
C 	 -72.9428 	 -42.4863 	 -92.8944 	 
C 	 -72.6404 	 -43.3258 	 -93.964 	 
C 	 -73.2684 	 -44.5671 	 -93.9175 	 
H 	 -72.1083 	 -43.0351 	 -94.8496 	 
C 	 -72.5742 	 -40.9839 	 -92.8265 	 
H 	 -73.5052 	 -40.5593 	 -93.2908 	 
H 	 -71.8393 	 -40.5372 	 -93.4866 	 
C 	 -72.35 	 -40.257 	 -91.4663 	 
H 	 -72.4383 	 -39.2228 	 -91.5841 	 
H 	 -73.1296 	 -40.5731 	 -90.7725 	 
C 	 -71.0475 	 -40.6456 	 -90.8508 	 
H 	 -71.0703 	 -40.1118 	 -89.87 	 
H 	 -70.9431 	 -41.7604 	 -90.6318 	 
H 	 -70.1705 	 -40.3283 	 -91.4256 	 
S 	 -72.1214 	 -47.012 	 -94.2633 	 
C 	 -72.1545 	 -47.7239 	 -95.8698 	 
C 	 -72.9506 	 -47.0736 	 -96.7489 	 
C 	 -73.5298 	 -45.8869 	 -96.1781 	 
C 	 -73.1466 	 -45.7108 	 -94.8404 	 
H 	 -73.1175 	 -47.3768 	 -97.8194 	 
C 	 -74.2859 	 -44.9325 	 -97.0913 	 
H 	 -74.3893 	 -45.5187 	 -98.0077 	 
H 	 -73.6102 	 -44.1528 	 -97.3873 	 
C 	 -75.637 	 -44.5133 	 -96.6537 	 
H 	 -76.213 	 -44.0169 	 -97.4343 	 
H 	 -75.4957 	 -43.8132 	 -95.8429 	 
C 	 -76.5601 	 -45.4987 	 -96.0226 	 
H 	 -76.1169 	 -45.9794 	 -95.1047 	 
H 	 -76.7639 	 -46.2115 	 -96.8027 	 
H 	 -77.5797 	 -45.1481 	 -95.749 	 
H 	 -74.1519 	 -42.7135 	 -91.077 	 
H 	 -71.6336 	 -48.6578 	 -96.1902 	 
