34

S 	 -122.959 	 62.8016 	 -61.2452 	 
C 	 -124.399 	 62.6449 	 -62.2834 	 
C 	 -125.435 	 62.0767 	 -61.5537 	 
C 	 -125.062 	 61.8418 	 -60.2228 	 
C 	 -123.737 	 62.0662 	 -59.9085 	 
H 	 -125.74 	 61.4533 	 -59.4834 	 
C 	 -126.908 	 61.7908 	 -61.978 	 
H 	 -127.129 	 60.7293 	 -61.8207 	 
H 	 -126.903 	 61.931 	 -63.0793 	 
C 	 -128.052 	 62.6694 	 -61.2953 	 
H 	 -129.053 	 62.3093 	 -61.5573 	 
H 	 -128.081 	 62.4144 	 -60.1945 	 
C 	 -127.934 	 64.136 	 -61.4813 	 
H 	 -127.633 	 64.4428 	 -62.5044 	 
H 	 -128.923 	 64.5731 	 -61.246 	 
H 	 -127.199 	 64.5389 	 -60.7254 	 
S 	 -122.415 	 63.7245 	 -58.2256 	 
C 	 -121.83 	 63.2073 	 -56.7026 	 
C 	 -122.397 	 61.9778 	 -56.3548 	 
C 	 -123.087 	 61.3773 	 -57.4672 	 
C 	 -123.142 	 62.1861 	 -58.5687 	 
H 	 -122.166 	 61.4957 	 -55.4301 	 
C 	 -123.736 	 59.9732 	 -57.3542 	 
H 	 -124.756 	 59.9975 	 -57.7208 	 
H 	 -123.823 	 59.7565 	 -56.3098 	 
C 	 -123.031 	 58.8232 	 -58.1414 	 
H 	 -122.887 	 59.1749 	 -59.136 	 
H 	 -123.716 	 57.9931 	 -58.3067 	 
C 	 -121.816 	 58.2386 	 -57.4061 	 
H 	 -121.981 	 57.9347 	 -56.3262 	 
H 	 -121.008 	 58.9301 	 -57.4814 	 
H 	 -121.577 	 57.3869 	 -58.0453 	 
H 	 -124.529 	 62.9427 	 -63.3489 	 
H 	 -121.186 	 63.7124 	 -56.0837 	 
