34

S 	 -36.1333 	 2.57122 	 14.3741 	 
C 	 -35.084 	 3.23654 	 15.5522 	 
C 	 -35.7963 	 3.81033 	 16.6342 	 
C 	 -37.2013 	 3.65288 	 16.486 	 
C 	 -37.5387 	 3.03807 	 15.3018 	 
H 	 -37.9747 	 3.9529 	 17.1506 	 
C 	 -35.1829 	 4.60627 	 17.7224 	 
H 	 -34.737 	 3.83973 	 18.4281 	 
H 	 -36.0654 	 5.08768 	 18.2523 	 
C 	 -34.1828 	 5.71102 	 17.4004 	 
H 	 -33.6934 	 5.8649 	 18.3644 	 
H 	 -33.5036 	 5.37143 	 16.6601 	 
C 	 -34.8674 	 7.00217 	 16.9528 	 
H 	 -35.7219 	 7.29601 	 17.5099 	 
H 	 -34.1716 	 7.83287 	 17.0006 	 
H 	 -35.1233 	 6.79566 	 15.8902 	 
S 	 -40.0746 	 2.18929 	 16.1452 	 
C 	 -41.3865 	 2.0858 	 14.9437 	 
C 	 -40.9129 	 2.46255 	 13.6665 	 
C 	 -39.4914 	 2.65089 	 13.6266 	 
C 	 -38.9082 	 2.69345 	 14.8761 	 
H 	 -41.6257 	 2.44345 	 12.874 	 
C 	 -38.8745 	 3.05488 	 12.3767 	 
H 	 -37.8917 	 2.58093 	 12.2857 	 
H 	 -38.8096 	 4.14695 	 12.2935 	 
C 	 -39.5662 	 2.70904 	 11.0069 	 
H 	 -40.4762 	 3.30978 	 10.8744 	 
H 	 -39.8476 	 1.68647 	 10.9851 	 
C 	 -38.6425 	 2.89653 	 9.74986 	 
H 	 -38.6187 	 3.9158 	 9.31317 	 
H 	 -38.8942 	 2.22638 	 8.90181 	 
H 	 -37.6307 	 2.73149 	 10.088 	 
H 	 -34.0421 	 3.41487 	 15.4202 	 
H 	 -42.3773 	 1.88837 	 15.0573 	 
