34

S 	 -126.022 	 63.3427 	 -56.8248 	 
C 	 -124.833 	 64.212 	 -57.7687 	 
C 	 -125.296 	 64.2604 	 -59.0691 	 
C 	 -126.613 	 63.7013 	 -59.302 	 
C 	 -127.089 	 63.0775 	 -58.166 	 
H 	 -127.11 	 63.8567 	 -60.2883 	 
C 	 -124.546 	 65.0289 	 -60.0972 	 
H 	 -123.71 	 65.5885 	 -59.5575 	 
H 	 -125.171 	 65.8584 	 -60.4879 	 
C 	 -123.948 	 64.103 	 -61.1241 	 
H 	 -123.59 	 63.1437 	 -60.6128 	 
H 	 -124.819 	 63.8724 	 -61.7968 	 
C 	 -122.789 	 64.6636 	 -61.971 	 
H 	 -121.83 	 64.7486 	 -61.3099 	 
H 	 -122.563 	 64.0084 	 -62.7519 	 
H 	 -123.01 	 65.6784 	 -62.3075 	 
S 	 -129.282 	 62.6374 	 -56.4914 	 
C 	 -130.536 	 61.5874 	 -57.0235 	 
C 	 -130.175 	 60.939 	 -58.2316 	 
C 	 -128.964 	 61.3313 	 -58.7858 	 
C 	 -128.321 	 62.3036 	 -57.9809 	 
H 	 -130.817 	 60.1814 	 -58.6328 	 
C 	 -128.528 	 60.7056 	 -60.0285 	 
H 	 -127.53 	 61.1734 	 -60.3097 	 
H 	 -129.216 	 60.9452 	 -60.844 	 
C 	 -128.407 	 59.1692 	 -59.9975 	 
H 	 -129.371 	 58.7903 	 -59.6964 	 
H 	 -127.68 	 58.8877 	 -59.2399 	 
C 	 -128.002 	 58.6785 	 -61.3353 	 
H 	 -127.111 	 59.2356 	 -61.6923 	 
H 	 -128.807 	 58.6621 	 -62.1021 	 
H 	 -127.601 	 57.7301 	 -61.343 	 
H 	 -123.844 	 64.4335 	 -57.4517 	 
H 	 -131.434 	 61.3444 	 -56.432 	 
