34

S 	 2.47322 	 -21.8753 	 -114.198 	 
C 	 2.57777 	 -20.1659 	 -114.421 	 
C 	 1.3079 	 -19.6013 	 -114.313 	 
C 	 0.302026 	 -20.519 	 -113.927 	 
C 	 0.748781 	 -21.8007 	 -113.775 	 
H 	 -0.661016 	 -20.1767 	 -113.748 	 
C 	 1.14131 	 -18.0767 	 -114.343 	 
H 	 2.06023 	 -17.6461 	 -114.661 	 
H 	 1.06441 	 -17.679 	 -113.333 	 
C 	 0.00911456 	 -17.5146 	 -115.223 	 
H 	 -0.894147 	 -17.9431 	 -114.868 	 
H 	 0.0419723 	 -16.4273 	 -115.3 	 
C 	 0.0171383 	 -17.9626 	 -116.701 	 
H 	 -0.118922 	 -19.0677 	 -116.699 	 
H 	 -0.785831 	 -17.4844 	 -117.247 	 
H 	 1.02604 	 -17.7607 	 -117.114 	 
S 	 0.428907 	 -23.8822 	 -111.939 	 
C 	 -0.991994 	 -24.904 	 -111.983 	 
C 	 -1.85256 	 -24.4796 	 -112.965 	 
C 	 -1.33695 	 -23.3308 	 -113.684 	 
C 	 -0.0839887 	 -22.9464 	 -113.375 	 
H 	 -2.89946 	 -24.8138 	 -113.091 	 
C 	 -2.15945 	 -22.6747 	 -114.809 	 
H 	 -1.44552 	 -22.0869 	 -115.343 	 
H 	 -2.98713 	 -22.0156 	 -114.421 	 
C 	 -2.76019 	 -23.6453 	 -115.878 	 
H 	 -3.50637 	 -23.1392 	 -116.474 	 
H 	 -3.2953 	 -24.4843 	 -115.421 	 
C 	 -1.66132 	 -24.1594 	 -116.662 	 
H 	 -0.825835 	 -24.6093 	 -116.041 	 
H 	 -1.32546 	 -23.5091 	 -117.493 	 
H 	 -2.15176 	 -24.9474 	 -117.272 	 
H 	 3.4726 	 -19.6272 	 -114.651 	 
H 	 -1.23561 	 -25.5893 	 -111.227 	 
