34

S 	 35.8592 	 -30.7049 	 -124.25 	 
C 	 37.4303 	 -31.4477 	 -124.671 	 
C 	 37.2664 	 -32.3967 	 -125.671 	 
C 	 35.9165 	 -32.4262 	 -126.157 	 
C 	 35.0646 	 -31.589 	 -125.506 	 
H 	 35.5843 	 -33.0617 	 -126.949 	 
C 	 38.3836 	 -33.2319 	 -126.2 	 
H 	 39.2527 	 -32.5406 	 -126.281 	 
H 	 38.0177 	 -33.4061 	 -127.259 	 
C 	 38.6903 	 -34.6372 	 -125.524 	 
H 	 37.7733 	 -35.1575 	 -125.65 	 
H 	 39.5708 	 -35.1061 	 -125.944 	 
C 	 38.9598 	 -34.5022 	 -124.017 	 
H 	 39.0487 	 -35.4411 	 -123.438 	 
H 	 39.92 	 -34.0416 	 -123.909 	 
H 	 38.3043 	 -33.808 	 -123.591 	 
S 	 33.1481 	 -30.8465 	 -127.208 	 
C 	 31.5177 	 -30.9433 	 -126.703 	 
C 	 31.3188 	 -31.3706 	 -125.365 	 
C 	 32.5742 	 -31.7158 	 -124.744 	 
C 	 33.653 	 -31.4633 	 -125.652 	 
H 	 30.25 	 -31.3842 	 -124.92 	 
C 	 32.8045 	 -32.0012 	 -123.265 	 
H 	 33.8499 	 -32.3735 	 -123.029 	 
H 	 32.1958 	 -32.87 	 -122.918 	 
C 	 32.6278 	 -30.702 	 -122.384 	 
H 	 31.6269 	 -30.3672 	 -122.504 	 
H 	 33.2193 	 -29.8542 	 -122.866 	 
C 	 32.9896 	 -30.9048 	 -120.893 	 
H 	 34.108 	 -30.964 	 -120.818 	 
H 	 32.555 	 -31.7033 	 -120.371 	 
H 	 32.7929 	 -29.9652 	 -120.41 	 
H 	 38.3881 	 -31.3276 	 -124.263 	 
H 	 30.5746 	 -30.6821 	 -127.277 	 
