34

S 	 -102.174 	 2.1378 	 -122.625 	 
C 	 -103.339 	 1.47347 	 -121.526 	 
C 	 -103.002 	 0.178885 	 -121.185 	 
C 	 -101.754 	 -0.195063 	 -121.754 	 
C 	 -101.129 	 0.760962 	 -122.491 	 
H 	 -101.339 	 -1.25489 	 -121.68 	 
C 	 -103.895 	 -0.739075 	 -120.376 	 
H 	 -104.284 	 -1.5071 	 -121.008 	 
H 	 -104.767 	 -0.231199 	 -120.085 	 
C 	 -103.241 	 -1.30415 	 -119.102 	 
H 	 -102.417 	 -1.99232 	 -119.285 	 
H 	 -102.98 	 -0.443938 	 -118.494 	 
C 	 -104.337 	 -2.12329 	 -118.423 	 
H 	 -105.173 	 -1.44041 	 -118.292 	 
H 	 -104.652 	 -3.06853 	 -118.911 	 
H 	 -104.038 	 -2.50466 	 -117.403 	 
S 	 -99.8281 	 0.690283 	 -124.901 	 
C 	 -98.2444 	 0.0034895 	 -125.044 	 
C 	 -97.7543 	 -0.407237 	 -123.817 	 
C 	 -98.6301 	 -0.0807232 	 -122.727 	 
C 	 -99.8511 	 0.495234 	 -123.128 	 
H 	 -96.6803 	 -0.708576 	 -123.767 	 
C 	 -98.2394 	 -0.423449 	 -121.375 	 
H 	 -97.4074 	 -1.12134 	 -121.433 	 
H 	 -99.0406 	 -1.08465 	 -120.978 	 
C 	 -97.94 	 0.754742 	 -120.386 	 
H 	 -97.524 	 0.271585 	 -119.462 	 
H 	 -98.8069 	 1.28407 	 -120.087 	 
C 	 -96.8159 	 1.76917 	 -120.844 	 
H 	 -97.2878 	 2.51534 	 -121.491 	 
H 	 -96.0062 	 1.40223 	 -121.473 	 
H 	 -96.3276 	 2.26087 	 -119.941 	 
H 	 -104.205 	 2.01551 	 -121.129 	 
H 	 -97.7291 	 -0.114452 	 -126.038 	 
