34

S 	 -38.9916 	 -10.0722 	 10.3175 	 
C 	 -40.3349 	 -10.2123 	 9.29472 	 
C 	 -40.0255 	 -10.2529 	 7.95375 	 
C 	 -38.5873 	 -10.21 	 7.71873 	 
C 	 -37.9282 	 -10.067 	 8.94987 	 
H 	 -38.1094 	 -10.227 	 6.7789 	 
C 	 -41.0391 	 -10.3765 	 6.91873 	 
H 	 -42.0651 	 -10.6631 	 7.25827 	 
H 	 -40.8826 	 -11.2324 	 6.32954 	 
C 	 -41.4062 	 -9.1087 	 6.08038 	 
H 	 -42.4 	 -9.27535 	 5.81353 	 
H 	 -41.3781 	 -8.27576 	 6.80461 	 
C 	 -40.5482 	 -9.03305 	 4.8276 	 
H 	 -39.4917 	 -9.09038 	 4.99726 	 
H 	 -40.9002 	 -9.91738 	 4.25059 	 
H 	 -40.7357 	 -8.08076 	 4.28471 	 
S 	 -35.5682 	 -10.4082 	 10.4081 	 
C 	 -34.1044 	 -9.46322 	 9.95997 	 
C 	 -34.3551 	 -8.74011 	 8.86052 	 
C 	 -35.7637 	 -8.79385 	 8.40026 	 
C 	 -36.5676 	 -9.68548 	 9.11145 	 
H 	 -33.6063 	 -8.10592 	 8.34159 	 
C 	 -36.2194 	 -7.82623 	 7.40239 	 
H 	 -36.8999 	 -8.24819 	 6.62053 	 
H 	 -35.3413 	 -7.60094 	 6.82601 	 
C 	 -36.8266 	 -6.50349 	 8.02418 	 
H 	 -36.0937 	 -6.12083 	 8.64238 	 
H 	 -37.5935 	 -6.71898 	 8.65746 	 
C 	 -37.3983 	 -5.4101 	 6.99231 	 
H 	 -38.077 	 -4.70489 	 7.47564 	 
H 	 -37.9422 	 -5.86136 	 6.14601 	 
H 	 -36.5439 	 -4.88985 	 6.59654 	 
H 	 -41.3636 	 -10.4339 	 9.71761 	 
H 	 -33.2092 	 -9.40781 	 10.5517 	 
