34

S 	 -139.917 	 8.30881 	 8.10079 	 
C 	 -140.701 	 8.89429 	 6.64458 	 
C 	 -140.492 	 10.2325 	 6.41075 	 
C 	 -140.051 	 10.8942 	 7.59948 	 
C 	 -139.694 	 10.005 	 8.58427 	 
H 	 -139.834 	 11.9343 	 7.70334 	 
C 	 -140.703 	 10.9471 	 5.14558 	 
H 	 -140.949 	 10.18 	 4.45779 	 
H 	 -139.837 	 11.3605 	 4.70981 	 
C 	 -141.761 	 11.9775 	 5.22802 	 
H 	 -142.599 	 11.5902 	 5.71143 	 
H 	 -141.517 	 12.8293 	 5.8416 	 
C 	 -142.218 	 12.3663 	 3.75779 	 
H 	 -142.518 	 11.4801 	 3.1844 	 
H 	 -143.118 	 12.8769 	 3.85707 	 
H 	 -141.505 	 12.7888 	 3.03493 	 
S 	 -138.099 	 9.43407 	 10.7602 	 
C 	 -138.375 	 10.2017 	 12.2879 	 
C 	 -139.133 	 11.3566 	 12.0631 	 
C 	 -139.71 	 11.4093 	 10.7547 	 
C 	 -139.329 	 10.4092 	 9.93982 	 
H 	 -139.117 	 12.1399 	 12.7869 	 
C 	 -140.819 	 12.4331 	 10.6231 	 
H 	 -140.514 	 12.8663 	 9.59124 	 
H 	 -140.727 	 13.3088 	 11.2395 	 
C 	 -142.245 	 11.8636 	 10.6595 	 
H 	 -142.382 	 11.4659 	 11.6716 	 
H 	 -142.194 	 10.9368 	 10.1122 	 
C 	 -143.485 	 12.7531 	 10.2016 	 
H 	 -144.44 	 12.3899 	 10.6443 	 
H 	 -143.646 	 12.6854 	 9.11408 	 
H 	 -143.322 	 13.7781 	 10.4628 	 
H 	 -141.048 	 8.33618 	 5.84222 	 
H 	 -137.904 	 9.96781 	 13.1686 	 
