34

S 	 -122.603 	 56.6042 	 -34.127 	 
C 	 -121.621 	 55.2191 	 -33.6344 	 
C 	 -121.141 	 55.442 	 -32.3426 	 
C 	 -121.642 	 56.6688 	 -31.8066 	 
C 	 -122.429 	 57.4349 	 -32.6252 	 
H 	 -121.46 	 57.0985 	 -30.8282 	 
C 	 -120.07 	 54.6764 	 -31.6792 	 
H 	 -119.705 	 55.1708 	 -30.8179 	 
H 	 -119.299 	 54.5399 	 -32.3725 	 
C 	 -120.577 	 53.2021 	 -31.3529 	 
H 	 -121.407 	 53.1326 	 -30.6343 	 
H 	 -120.99 	 52.8293 	 -32.3079 	 
C 	 -119.505 	 52.2315 	 -31.0005 	 
H 	 -119.953 	 51.202 	 -31.0367 	 
H 	 -118.675 	 52.1894 	 -31.6916 	 
H 	 -119.068 	 52.3007 	 -30.0229 	 
S 	 -122.268 	 59.9965 	 -33.8051 	 
C 	 -122.782 	 61.3997 	 -32.9011 	 
C 	 -123.01 	 61.0485 	 -31.5627 	 
C 	 -123.079 	 59.596 	 -31.3752 	 
C 	 -122.735 	 58.9082 	 -32.517 	 
H 	 -123.408 	 61.8416 	 -31.0093 	 
C 	 -123.654 	 58.9921 	 -30.0625 	 
H 	 -123.792 	 57.9278 	 -30.2755 	 
H 	 -124.598 	 59.4821 	 -30.0847 	 
C 	 -122.829 	 59.2592 	 -28.755 	 
H 	 -123.293 	 60.0992 	 -28.165 	 
H 	 -121.832 	 59.6537 	 -29.1315 	 
C 	 -122.766 	 58.0788 	 -27.8079 	 
H 	 -122.254 	 58.1765 	 -26.8062 	 
H 	 -122.139 	 57.3133 	 -28.2534 	 
H 	 -123.701 	 57.5255 	 -27.684 	 
H 	 -121.443 	 54.3565 	 -34.2771 	 
H 	 -122.917 	 62.276 	 -33.4593 	 
