34

S 	 -67.9539 	 8.57124 	 -74.175 	 
C 	 -66.4944 	 9.29454 	 -73.4779 	 
C 	 -66.7252 	 9.52846 	 -72.0987 	 
C 	 -68.0703 	 9.08616 	 -71.6611 	 
C 	 -68.8083 	 8.48253 	 -72.6617 	 
H 	 -68.4582 	 9.32971 	 -70.6402 	 
C 	 -65.9263 	 10.5872 	 -71.3236 	 
H 	 -64.9944 	 10.879 	 -71.8662 	 
H 	 -65.7021 	 10.1956 	 -70.3457 	 
C 	 -66.7102 	 11.8963 	 -70.9707 	 
H 	 -67.4524 	 11.601 	 -70.2328 	 
H 	 -66.0766 	 12.5595 	 -70.4719 	 
C 	 -67.4762 	 12.5624 	 -72.1002 	 
H 	 -68.3187 	 11.9164 	 -72.3677 	 
H 	 -67.8497 	 13.5753 	 -71.7812 	 
H 	 -66.7213 	 12.7787 	 -72.9204 	 
S 	 -70.1241 	 6.56633 	 -71.3686 	 
C 	 -71.6452 	 5.93111 	 -71.9991 	 
C 	 -72.1093 	 6.69695 	 -73.0606 	 
C 	 -71.3491 	 7.8778 	 -73.2712 	 
C 	 -70.1125 	 7.90382 	 -72.5045 	 
H 	 -73.035 	 6.46194 	 -73.5911 	 
C 	 -71.5212 	 8.73063 	 -74.5038 	 
H 	 -72.5666 	 8.53661 	 -74.6756 	 
H 	 -70.9978 	 8.33987 	 -75.3741 	 
C 	 -71.2217 	 10.2849 	 -74.393 	 
H 	 -71.5184 	 10.8938 	 -75.2744 	 
H 	 -70.1097 	 10.3652 	 -74.2115 	 
C 	 -72.0723 	 10.8567 	 -73.216 	 
H 	 -73.122 	 10.8464 	 -73.3557 	 
H 	 -71.6361 	 11.8731 	 -72.9972 	 
H 	 -71.9561 	 10.2355 	 -72.345 	 
H 	 -65.6373 	 9.65909 	 -74.0249 	 
H 	 -72.1425 	 5.06366 	 -71.7274 	 
