34

S 	 -64.7563 	 12.0169 	 -88.4745 	 
C 	 -64.9161 	 13.0542 	 -89.9307 	 
C 	 -64.6515 	 14.3997 	 -89.7128 	 
C 	 -64.0557 	 14.5585 	 -88.3818 	 
C 	 -63.9899 	 13.3908 	 -87.6374 	 
H 	 -63.8039 	 15.4717 	 -87.9443 	 
C 	 -64.7707 	 15.5882 	 -90.6411 	 
H 	 -65.1466 	 15.2727 	 -91.5871 	 
H 	 -63.7491 	 15.9599 	 -90.803 	 
C 	 -65.5603 	 16.8094 	 -90.1581 	 
H 	 -65.133 	 17.0946 	 -89.2222 	 
H 	 -65.4918 	 17.565 	 -90.8819 	 
C 	 -67.0546 	 16.5159 	 -89.9095 	 
H 	 -67.6093 	 16.473 	 -90.8842 	 
H 	 -67.3752 	 15.5778 	 -89.4443 	 
H 	 -67.4983 	 17.3337 	 -89.3607 	 
S 	 -64.8639 	 12.5015 	 -85.2661 	 
C 	 -64.0647 	 12.9028 	 -83.7636 	 
C 	 -62.8789 	 13.5461 	 -83.9959 	 
C 	 -62.7352 	 13.8758 	 -85.3967 	 
C 	 -63.7104 	 13.285 	 -86.2268 	 
H 	 -62.193 	 13.7908 	 -83.2359 	 
C 	 -61.4364 	 14.3589 	 -85.9703 	 
H 	 -60.8848 	 14.8947 	 -85.1777 	 
H 	 -61.6362 	 15.0818 	 -86.799 	 
C 	 -60.4732 	 13.3262 	 -86.5526 	 
H 	 -59.764 	 13.8376 	 -87.221 	 
H 	 -61.0776 	 12.792 	 -87.2822 	 
C 	 -59.7865 	 12.3888 	 -85.5783 	 
H 	 -59.1499 	 13.0581 	 -85.0053 	 
H 	 -59.0161 	 11.6913 	 -85.975 	 
H 	 -60.5131 	 11.8207 	 -84.9771 	 
H 	 -65.3781 	 12.6175 	 -90.8345 	 
H 	 -64.4877 	 12.6914 	 -82.7939 	 
