34

S 	 -35.9262 	 5.54456 	 5.18312 	 
C 	 -35.1631 	 5.02046 	 3.71838 	 
C 	 -33.9674 	 4.326 	 4.02408 	 
C 	 -33.7149 	 4.2076 	 5.41802 	 
C 	 -34.7394 	 4.70024 	 6.17363 	 
H 	 -32.8172 	 3.68976 	 5.833 	 
C 	 -33.0055 	 3.78297 	 2.96455 	 
H 	 -32.064 	 3.89999 	 3.4439 	 
H 	 -32.9749 	 4.34931 	 2.03976 	 
C 	 -33.335 	 2.35058 	 2.53665 	 
H 	 -33.562 	 1.76266 	 3.50796 	 
H 	 -34.2415 	 2.24853 	 2.01099 	 
C 	 -32.261 	 1.61166 	 1.77231 	 
H 	 -32.607 	 0.559696 	 1.82053 	 
H 	 -32.055 	 1.83485 	 0.708527 	 
H 	 -31.3186 	 1.62852 	 2.31379 	 
S 	 -33.4339 	 5.00288 	 8.5335 	 
C 	 -34.3506 	 4.94162 	 10.0419 	 
C 	 -35.6916 	 4.57779 	 9.7411 	 
C 	 -35.9768 	 4.33317 	 8.39145 	 
C 	 -34.8836 	 4.67483 	 7.59827 	 
H 	 -36.2507 	 4.48132 	 10.618 	 
C 	 -37.3562 	 3.88273 	 7.90225 	 
H 	 -37.4314 	 4.10201 	 6.85989 	 
H 	 -38.1057 	 4.53989 	 8.45437 	 
C 	 -37.6413 	 2.3652 	 8.25067 	 
H 	 -38.6864 	 2.09937 	 8.15311 	 
H 	 -37.2955 	 2.20797 	 9.28727 	 
C 	 -36.8774 	 1.48565 	 7.32416 	 
H 	 -37.3127 	 1.55032 	 6.30202 	 
H 	 -37.0883 	 0.413232 	 7.6965 	 
H 	 -35.8033 	 1.72068 	 7.32274 	 
H 	 -35.4419 	 5.21645 	 2.69425 	 
H 	 -34.0029 	 5.34539 	 11.0407 	 
