34

S 	 -99.44 	 44.1836 	 -90.6726 	 
C 	 -99.0751 	 42.4787 	 -90.8432 	 
C 	 -100.014 	 41.7376 	 -90.2256 	 
C 	 -100.816 	 42.5138 	 -89.3326 	 
C 	 -100.624 	 43.8643 	 -89.49 	 
H 	 -101.654 	 42.1043 	 -88.8219 	 
C 	 -100.028 	 40.2317 	 -90.3687 	 
H 	 -100.425 	 39.9862 	 -91.4325 	 
H 	 -100.798 	 39.7915 	 -89.7153 	 
C 	 -98.618 	 39.5412 	 -90.1055 	 
H 	 -98.7603 	 38.4491 	 -90.2504 	 
H 	 -97.9475 	 39.9612 	 -90.8347 	 
C 	 -98.1791 	 39.713 	 -88.674 	 
H 	 -98.1496 	 40.8234 	 -88.4415 	 
H 	 -98.9157 	 39.3472 	 -87.9686 	 
H 	 -97.209 	 39.2605 	 -88.4233 	 
S 	 -101.085 	 46.5551 	 -89.3783 	 
C 	 -101.613 	 47.2377 	 -87.94 	 
C 	 -102.347 	 46.3369 	 -87.2015 	 
C 	 -102.23 	 45.0026 	 -87.6877 	 
C 	 -101.282 	 44.9859 	 -88.73 	 
H 	 -102.83 	 46.7311 	 -86.2859 	 
C 	 -102.613 	 43.8871 	 -86.7066 	 
H 	 -102.559 	 42.9415 	 -87.2574 	 
H 	 -103.688 	 44.0179 	 -86.4063 	 
C 	 -101.968 	 43.8192 	 -85.3013 	 
H 	 -102.411 	 44.4899 	 -84.6578 	 
H 	 -100.962 	 44.2381 	 -85.2905 	 
C 	 -102.044 	 42.4517 	 -84.5478 	 
H 	 -101.88 	 42.4691 	 -83.4298 	 
H 	 -101.365 	 41.7514 	 -85.0086 	 
H 	 -103.032 	 42.0786 	 -84.6663 	 
H 	 -98.3744 	 42.0486 	 -91.5215 	 
H 	 -101.51 	 48.1895 	 -87.5299 	 
