34

S 	 -111.712 	 24.803 	 -110.069 	 
C 	 -110.453 	 23.8788 	 -109.379 	 
C 	 -109.767 	 23.0717 	 -110.298 	 
C 	 -110.351 	 23.2827 	 -111.581 	 
C 	 -111.413 	 24.2162 	 -111.664 	 
H 	 -109.964 	 22.8665 	 -112.473 	 
C 	 -108.586 	 22.1264 	 -110 	 
H 	 -107.724 	 22.7674 	 -110.123 	 
H 	 -108.597 	 21.2919 	 -110.732 	 
C 	 -108.595 	 21.4435 	 -108.64 	 
H 	 -109.64 	 21.3487 	 -108.278 	 
H 	 -108.14 	 20.4481 	 -108.735 	 
C 	 -107.773 	 22.1767 	 -107.538 	 
H 	 -106.696 	 22.1053 	 -107.798 	 
H 	 -107.943 	 23.2344 	 -107.552 	 
H 	 -107.911 	 21.8039 	 -106.571 	 
S 	 -113.792 	 25.2334 	 -112.352 	 
C 	 -114.262 	 25.3878 	 -114.073 	 
C 	 -113.136 	 25.1156 	 -114.862 	 
C 	 -111.988 	 24.7079 	 -114.158 	 
C 	 -112.2 	 24.577 	 -112.759 	 
H 	 -113.211 	 25.2966 	 -115.942 	 
C 	 -110.694 	 24.3119 	 -114.945 	 
H 	 -110.455 	 23.2711 	 -115.037 	 
H 	 -109.792 	 24.5218 	 -114.411 	 
C 	 -110.336 	 25.0439 	 -116.322 	 
H 	 -111.054 	 24.7185 	 -117.102 	 
H 	 -109.311 	 24.6598 	 -116.507 	 
C 	 -110.162 	 26.5374 	 -116.513 	 
H 	 -111.128 	 27.056 	 -116.314 	 
H 	 -109.84 	 26.8005 	 -117.486 	 
H 	 -109.438 	 26.9557 	 -115.869 	 
H 	 -110.106 	 23.8617 	 -108.28 	 
H 	 -115.284 	 25.6712 	 -114.426 	 
