34

S 	 -39.3882 	 12.3304 	 24.0643 	 
C 	 -40.998 	 12.1103 	 23.5814 	 
C 	 -41.9515 	 12.5017 	 24.548 	 
C 	 -41.2743 	 12.8845 	 25.7499 	 
C 	 -39.8816 	 12.7235 	 25.6533 	 
H 	 -41.7205 	 13.2385 	 26.6335 	 
C 	 -43.504 	 12.5197 	 24.3195 	 
H 	 -43.7242 	 11.5747 	 23.8637 	 
H 	 -43.8649 	 13.2376 	 23.5889 	 
C 	 -44.2475 	 12.8283 	 25.5354 	 
H 	 -43.9446 	 13.7204 	 25.9539 	 
H 	 -45.3171 	 12.9377 	 25.2406 	 
C 	 -44.205 	 11.6883 	 26.5388 	 
H 	 -43.1859 	 11.4564 	 26.732 	 
H 	 -44.6191 	 11.8612 	 27.5308 	 
H 	 -44.7611 	 10.7745 	 26.2532 	 
S 	 -37.5184 	 13.9084 	 26.6147 	 
C 	 -36.9997 	 13.5715 	 28.1916 	 
C 	 -37.7358 	 12.58 	 28.7763 	 
C 	 -38.9102 	 12.1979 	 28.0157 	 
C 	 -38.941 	 12.7802 	 26.7517 	 
H 	 -37.5292 	 12.1665 	 29.7179 	 
C 	 -39.9169 	 11.1467 	 28.5289 	 
H 	 -39.3624 	 10.2357 	 28.6864 	 
H 	 -40.5357 	 10.9528 	 27.6816 	 
C 	 -40.7072 	 11.5107 	 29.7778 	 
H 	 -40.0118 	 11.5784 	 30.66 	 
H 	 -41.3233 	 10.6335 	 30.03 	 
C 	 -41.7457 	 12.7617 	 29.6591 	 
H 	 -42.2712 	 12.9547 	 30.6114 	 
H 	 -42.6346 	 12.7104 	 28.9395 	 
H 	 -41.2577 	 13.6458 	 29.3846 	 
H 	 -41.2436 	 11.6773 	 22.6212 	 
H 	 -36.215 	 14.0441 	 28.6727 	 
