34

S 	 -102.212 	 45.4369 	 -86.3208 	 
C 	 -101.855 	 44.0545 	 -87.4371 	 
C 	 -103.024 	 43.2984 	 -87.4263 	 
C 	 -104.069 	 43.7967 	 -86.5648 	 
C 	 -103.766 	 44.8495 	 -85.7939 	 
H 	 -104.995 	 43.3122 	 -86.5446 	 
C 	 -103.205 	 42.1882 	 -88.4408 	 
H 	 -103.007 	 42.5583 	 -89.3907 	 
H 	 -104.245 	 42.0723 	 -88.4874 	 
C 	 -102.395 	 40.9191 	 -88.1362 	 
H 	 -102.576 	 40.1418 	 -88.9563 	 
H 	 -101.386 	 41.1553 	 -88.1607 	 
C 	 -102.732 	 40.2031 	 -86.8716 	 
H 	 -101.858 	 39.6626 	 -86.4919 	 
H 	 -103.033 	 40.9308 	 -86.1083 	 
H 	 -103.421 	 39.4268 	 -86.9432 	 
S 	 -104.967 	 47.3149 	 -85.434 	 
C 	 -106.039 	 47.5102 	 -84.0604 	 
C 	 -106.315 	 46.3012 	 -83.4808 	 
C 	 -105.572 	 45.1895 	 -83.9815 	 
C 	 -104.637 	 45.6311 	 -84.9162 	 
H 	 -106.938 	 46.354 	 -82.611 	 
C 	 -105.585 	 43.7434 	 -83.372 	 
H 	 -105.17 	 43.9057 	 -82.3937 	 
H 	 -104.813 	 43.1366 	 -83.8718 	 
C 	 -106.963 	 43.0359 	 -83.2956 	 
H 	 -107.169 	 42.7195 	 -84.3381 	 
H 	 -107.729 	 43.7613 	 -83.155 	 
C 	 -107.009 	 41.9644 	 -82.1914 	 
H 	 -107.591 	 41.0819 	 -82.5071 	 
H 	 -107.481 	 42.2874 	 -81.3168 	 
H 	 -106 	 41.591 	 -81.9723 	 
H 	 -101.041 	 43.9202 	 -88.1361 	 
H 	 -106.671 	 48.3901 	 -83.8374 	 
