34

S 	 -101.652 	 -0.227906 	 -104.235 	 
C 	 -100.095 	 -0.371072 	 -105.054 	 
C 	 -99.0803 	 0.193345 	 -104.277 	 
C 	 -99.537 	 0.854079 	 -103.13 	 
C 	 -100.914 	 0.616956 	 -102.877 	 
H 	 -98.9019 	 1.39253 	 -102.432 	 
C 	 -97.6131 	 0.145379 	 -104.707 	 
H 	 -97.2846 	 1.12942 	 -104.799 	 
H 	 -97.6827 	 -0.204257 	 -105.712 	 
C 	 -96.5868 	 -0.670222 	 -103.989 	 
H 	 -96.5733 	 -0.548086 	 -102.903 	 
H 	 -96.8115 	 -1.67103 	 -104.22 	 
C 	 -95.1956 	 -0.243763 	 -104.401 	 
H 	 -94.4223 	 -1.04576 	 -104.224 	 
H 	 -95.1852 	 0.0370347 	 -105.403 	 
H 	 -94.9703 	 0.731132 	 -103.921 	 
S 	 -102.822 	 2.51621 	 -101.962 	 
C 	 -103.244 	 2.55514 	 -100.232 	 
C 	 -102.495 	 1.58785 	 -99.5961 	 
C 	 -101.687 	 0.735653 	 -100.437 	 
C 	 -101.724 	 1.12786 	 -101.753 	 
H 	 -102.654 	 1.52328 	 -98.4869 	 
C 	 -100.937 	 -0.362313 	 -99.6592 	 
H 	 -100.531 	 0.147415 	 -98.8806 	 
H 	 -100.17 	 -0.789832 	 -100.327 	 
C 	 -101.786 	 -1.38528 	 -99.0329 	 
H 	 -102.563 	 -1.81396 	 -99.6673 	 
H 	 -102.27 	 -0.807098 	 -98.2988 	 
C 	 -100.875 	 -2.51196 	 -98.4443 	 
H 	 -100.013 	 -2.27209 	 -97.7499 	 
H 	 -100.523 	 -3.21325 	 -99.2494 	 
H 	 -101.521 	 -3.13412 	 -97.84 	 
H 	 -99.8746 	 -0.841896 	 -105.963 	 
H 	 -103.981 	 3.21633 	 -99.7499 	 
