34

S 	 -50.0132 	 12.5046 	 23.2622 	 
C 	 -50.0997 	 13.5459 	 24.6271 	 
C 	 -50.5485 	 14.8123 	 24.3621 	 
C 	 -50.7873 	 14.967 	 22.9373 	 
C 	 -50.6155 	 13.7769 	 22.201 	 
H 	 -51.1588 	 15.8658 	 22.4764 	 
C 	 -50.5792 	 15.974 	 25.3113 	 
H 	 -50.4354 	 16.9185 	 24.8412 	 
H 	 -49.8695 	 15.7563 	 26.1339 	 
C 	 -51.9157 	 16.2358 	 26.047 	 
H 	 -52.2066 	 15.3113 	 26.5172 	 
H 	 -51.6565 	 16.9594 	 26.8244 	 
C 	 -53.0497 	 16.8444 	 25.1841 	 
H 	 -52.8178 	 16.9127 	 24.0663 	 
H 	 -54.0698 	 16.4519 	 25.3037 	 
H 	 -53.0345 	 17.8953 	 25.4565 	 
S 	 -50.8074 	 12.018 	 20.0204 	 
C 	 -50.5237 	 12.5665 	 18.4563 	 
C 	 -50.1781 	 13.8707 	 18.4716 	 
C 	 -50.2844 	 14.5469 	 19.705 	 
C 	 -50.5092 	 13.6332 	 20.7514 	 
H 	 -49.9037 	 14.4116 	 17.56 	 
C 	 -49.9949 	 16.0481 	 19.9539 	 
H 	 -49.172 	 16.3315 	 19.2746 	 
H 	 -49.5372 	 16.3023 	 20.9244 	 
C 	 -51.1394 	 16.9538 	 19.7356 	 
H 	 -52.0202 	 16.7663 	 20.3169 	 
H 	 -51.5532 	 16.7205 	 18.7738 	 
C 	 -50.6313 	 18.3466 	 19.9175 	 
H 	 -51.2133 	 19.0692 	 19.3199 	 
H 	 -49.6801 	 18.5484 	 19.5761 	 
H 	 -50.5389 	 18.6724 	 20.9073 	 
H 	 -49.6318 	 13.2738 	 25.5644 	 
H 	 -50.5079 	 11.9597 	 17.6046 	 
