34

S 	 43.2674 	 -20.0162 	 -115.671 	 
C 	 43.3019 	 -18.2543 	 -115.626 	 
C 	 44.0967 	 -17.7505 	 -114.622 	 
C 	 44.7166 	 -18.8049 	 -113.861 	 
C 	 44.3591 	 -20.0991 	 -114.302 	 
H 	 45.4909 	 -18.6869 	 -113.115 	 
C 	 44.1399 	 -16.2859 	 -114.304 	 
H 	 43.1507 	 -15.7842 	 -114.362 	 
H 	 44.7613 	 -15.8408 	 -115.089 	 
C 	 44.6397 	 -15.9083 	 -112.841 	 
H 	 45.5903 	 -16.5056 	 -112.637 	 
H 	 44.7183 	 -14.9287 	 -112.757 	 
C 	 43.7372 	 -16.1619 	 -111.632 	 
H 	 44.2747 	 -16.1287 	 -110.634 	 
H 	 42.8739 	 -15.5872 	 -111.54 	 
H 	 43.4538 	 -17.2601 	 -111.699 	 
S 	 45.9897 	 -22.2236 	 -114.839 	 
C 	 46.2278 	 -23.3794 	 -113.498 	 
C 	 45.8405 	 -22.9158 	 -112.309 	 
C 	 45.0199 	 -21.7693 	 -112.448 	 
C 	 44.8944 	 -21.3 	 -113.697 	 
H 	 46.0149 	 -23.5727 	 -111.455 	 
C 	 44.2842 	 -21.065 	 -111.326 	 
H 	 43.5774 	 -21.7761 	 -110.911 	 
H 	 43.5731 	 -20.3114 	 -111.703 	 
C 	 45.2294 	 -20.4124 	 -110.323 	 
H 	 46.0549 	 -19.7718 	 -110.704 	 
H 	 45.7578 	 -21.2617 	 -109.877 	 
C 	 44.4691 	 -19.8263 	 -109.138 	 
H 	 44.1939 	 -18.8111 	 -109.31 	 
H 	 45.1133 	 -19.7055 	 -108.261 	 
H 	 43.5917 	 -20.4639 	 -108.863 	 
H 	 42.6135 	 -17.5929 	 -116.149 	 
H 	 46.7272 	 -24.3401 	 -113.66 	 
