34

S 	 45.3497 	 -12.0677 	 -124.656 	 
C 	 43.9396 	 -11.2942 	 -125.194 	 
C 	 43.0204 	 -12.1841 	 -125.781 	 
C 	 43.4526 	 -13.5168 	 -125.59 	 
C 	 44.7278 	 -13.6739 	 -125.147 	 
H 	 42.7141 	 -14.2503 	 -125.781 	 
C 	 41.7098 	 -11.8543 	 -126.44 	 
H 	 41.5199 	 -10.8376 	 -126.206 	 
H 	 40.9823 	 -12.3569 	 -125.881 	 
C 	 41.5984 	 -11.9121 	 -127.917 	 
H 	 41.9973 	 -12.7946 	 -128.341 	 
H 	 40.5771 	 -11.9042 	 -128.161 	 
C 	 42.1461 	 -10.6764 	 -128.639 	 
H 	 43.1848 	 -10.6192 	 -128.367 	 
H 	 42.2517 	 -10.8338 	 -129.678 	 
H 	 41.6972 	 -9.72517 	 -128.326 	 
S 	 46.6018 	 -14.6653 	 -123.477 	 
C 	 47.0663 	 -16.4028 	 -123.411 	 
C 	 46.3292 	 -17.0647 	 -124.38 	 
C 	 45.3228 	 -16.2944 	 -125.09 	 
C 	 45.4232 	 -14.9246 	 -124.688 	 
H 	 46.4237 	 -18.1233 	 -124.544 	 
C 	 44.4855 	 -16.8229 	 -126.262 	 
H 	 43.465 	 -16.8688 	 -125.886 	 
H 	 44.9173 	 -17.7335 	 -126.526 	 
C 	 44.5863 	 -16.0226 	 -127.591 	 
H 	 44.5261 	 -14.9245 	 -127.367 	 
H 	 43.736 	 -16.2956 	 -128.236 	 
C 	 45.8152 	 -16.293 	 -128.374 	 
H 	 45.852 	 -15.9183 	 -129.451 	 
H 	 45.9805 	 -17.3278 	 -128.619 	 
H 	 46.813 	 -15.9299 	 -127.945 	 
H 	 43.8107 	 -10.2676 	 -124.988 	 
H 	 47.9513 	 -16.8284 	 -123.008 	 
