34

S 	 -77.2994 	 -3.97062 	 -66.8319 	 
C 	 -75.7532 	 -3.35989 	 -66.2702 	 
C 	 -74.7694 	 -3.41019 	 -67.2765 	 
C 	 -75.3592 	 -3.77034 	 -68.5029 	 
C 	 -76.6913 	 -4.17958 	 -68.4349 	 
H 	 -74.9333 	 -3.80536 	 -69.4957 	 
C 	 -73.3313 	 -2.97759 	 -67.1521 	 
H 	 -73.401 	 -2.12062 	 -66.4809 	 
H 	 -73.107 	 -2.59039 	 -68.1345 	 
C 	 -72.4681 	 -4.13741 	 -66.6338 	 
H 	 -72.8628 	 -4.40266 	 -65.6732 	 
H 	 -72.4653 	 -5.02134 	 -67.326 	 
C 	 -70.9596 	 -3.79413 	 -66.5613 	 
H 	 -70.6415 	 -3.3181 	 -67.4566 	 
H 	 -70.7726 	 -3.03467 	 -65.778 	 
H 	 -70.3294 	 -4.69358 	 -66.3413 	 
S 	 -78.0574 	 -6.23968 	 -69.7824 	 
C 	 -78.8469 	 -5.85116 	 -71.2708 	 
C 	 -78.6922 	 -4.53869 	 -71.6436 	 
C 	 -77.9544 	 -3.80409 	 -70.6787 	 
C 	 -77.5487 	 -4.58081 	 -69.5917 	 
H 	 -79.2756 	 -4.25567 	 -72.4702 	 
C 	 -77.7474 	 -2.32277 	 -70.8871 	 
H 	 -77.5929 	 -2.20032 	 -71.9912 	 
H 	 -76.8763 	 -1.98923 	 -70.3064 	 
C 	 -78.9792 	 -1.37906 	 -70.5552 	 
H 	 -79.4654 	 -1.65099 	 -69.602 	 
H 	 -79.6482 	 -1.43708 	 -71.4664 	 
C 	 -78.6356 	 0.118652 	 -70.6435 	 
H 	 -77.9914 	 0.256966 	 -71.474 	 
H 	 -78.1278 	 0.488975 	 -69.7621 	 
H 	 -79.4665 	 0.802615 	 -70.8666 	 
H 	 -75.5189 	 -3.05624 	 -65.2688 	 
H 	 -79.4108 	 -6.56143 	 -71.8067 	 
