34

S 	 -41.1021 	 -50.1755 	 -73.8428 	 
C 	 -41.4768 	 -48.6164 	 -74.3698 	 
C 	 -40.5225 	 -47.667 	 -74.1019 	 
C 	 -39.5851 	 -48.1608 	 -73.2116 	 
C 	 -39.7234 	 -49.5448 	 -73.0686 	 
H 	 -38.7972 	 -47.5554 	 -72.6973 	 
C 	 -40.5282 	 -46.1855 	 -74.5248 	 
H 	 -40.3064 	 -46.1807 	 -75.5962 	 
H 	 -39.6311 	 -45.6945 	 -73.9564 	 
C 	 -41.7647 	 -45.3653 	 -74.2248 	 
H 	 -41.5549 	 -44.3258 	 -74.5261 	 
H 	 -42.6574 	 -45.6643 	 -74.7854 	 
C 	 -41.9968 	 -45.3044 	 -72.7126 	 
H 	 -41.2147 	 -44.747 	 -72.2295 	 
H 	 -42.9669 	 -44.8402 	 -72.565 	 
H 	 -41.9592 	 -46.2636 	 -72.1532 	 
S 	 -37.349 	 -50.9111 	 -72.7327 	 
C 	 -37.1098 	 -51.9054 	 -71.3328 	 
C 	 -38.256 	 -51.9924 	 -70.5632 	 
C 	 -39.3566 	 -51.1679 	 -71.0005 	 
C 	 -38.9875 	 -50.4063 	 -72.1317 	 
H 	 -38.1934 	 -52.7139 	 -69.7494 	 
C 	 -40.7318 	 -51.1904 	 -70.2401 	 
H 	 -41.5274 	 -50.6895 	 -70.8186 	 
H 	 -40.6629 	 -50.587 	 -69.3813 	 
C 	 -41.1089 	 -52.579 	 -69.704 	 
H 	 -40.2569 	 -53.0003 	 -69.2594 	 
H 	 -41.4751 	 -53.3333 	 -70.4474 	 
C 	 -42.3047 	 -52.4906 	 -68.7011 	 
H 	 -43.1143 	 -51.8822 	 -69.1147 	 
H 	 -41.8487 	 -52.0986 	 -67.802 	 
H 	 -42.7258 	 -53.4832 	 -68.5416 	 
H 	 -42.3259 	 -48.2794 	 -74.881 	 
H 	 -36.2749 	 -52.5272 	 -71.1386 	 
