34

S 	 -48.7376 	 4.27423 	 -21.0587 	 
C 	 -49.4925 	 2.83757 	 -21.6633 	 
C 	 -50.6323 	 2.51252 	 -20.9846 	 
C 	 -50.8351 	 3.32572 	 -19.8288 	 
C 	 -49.8979 	 4.30902 	 -19.67 	 
H 	 -51.5786 	 3.18612 	 -19.03 	 
C 	 -51.4789 	 1.29218 	 -21.2653 	 
H 	 -50.7849 	 0.7623 	 -21.9092 	 
H 	 -52.3116 	 1.61877 	 -21.9173 	 
C 	 -51.9392 	 0.341399 	 -20.1277 	 
H 	 -51.0705 	 -0.216923 	 -19.7085 	 
H 	 -52.2651 	 0.804483 	 -19.1966 	 
C 	 -53.1176 	 -0.577084 	 -20.5903 	 
H 	 -52.9044 	 -1.41702 	 -21.3065 	 
H 	 -53.3329 	 -1.1222 	 -19.7025 	 
H 	 -53.9622 	 -0.0632739 	 -20.9348 	 
S 	 -49.9044 	 7.07759 	 -19.5524 	 
C 	 -50.1223 	 7.85381 	 -18.0498 	 
C 	 -50.0285 	 7.01491 	 -16.9983 	 
C 	 -49.7825 	 5.61178 	 -17.4009 	 
C 	 -49.9458 	 5.50698 	 -18.779 	 
H 	 -50.0921 	 7.33716 	 -15.9878 	 
C 	 -49.4556 	 4.57367 	 -16.3444 	 
H 	 -49.825 	 3.64579 	 -16.7895 	 
H 	 -49.9983 	 4.82951 	 -15.4189 	 
C 	 -47.9954 	 4.45483 	 -16.1572 	 
H 	 -47.6116 	 4.20297 	 -17.13 	 
H 	 -47.9541 	 3.47551 	 -15.6095 	 
C 	 -47.2024 	 5.53489 	 -15.4459 	 
H 	 -47.5301 	 5.5952 	 -14.4363 	 
H 	 -47.5001 	 6.42512 	 -15.9872 	 
H 	 -46.1498 	 5.29422 	 -15.6155 	 
H 	 -49.1516 	 2.25694 	 -22.5385 	 
H 	 -50.4226 	 8.89406 	 -17.8928 	 
