34

S 	 -118.179 	 46.8442 	 -116.72 	 
C 	 -117.551 	 45.2064 	 -116.989 	 
C 	 -116.41 	 45.027 	 -116.224 	 
C 	 -116.199 	 46.0773 	 -115.277 	 
C 	 -116.937 	 47.2024 	 -115.491 	 
H 	 -115.488 	 46.0567 	 -114.427 	 
C 	 -115.472 	 43.7845 	 -116.293 	 
H 	 -116.087 	 43.0567 	 -116.879 	 
H 	 -115.363 	 43.4356 	 -115.35 	 
C 	 -114.087 	 44.0921 	 -116.911 	 
H 	 -113.429 	 44.6907 	 -116.329 	 
H 	 -113.597 	 43.1257 	 -117.019 	 
C 	 -114.131 	 44.8504 	 -118.233 	 
H 	 -113.273 	 44.5519 	 -118.736 	 
H 	 -114.952 	 44.4632 	 -118.84 	 
H 	 -114.316 	 45.8886 	 -118.194 	 
S 	 -116.673 	 49.9461 	 -115.349 	 
C 	 -116.769 	 50.7132 	 -113.792 	 
C 	 -117.184 	 49.8352 	 -112.818 	 
C 	 -117.087 	 48.4633 	 -113.256 	 
C 	 -116.956 	 48.3461 	 -114.641 	 
H 	 -117.368 	 50.3132 	 -111.837 	 
C 	 -117.424 	 47.3266 	 -112.414 	 
H 	 -116.826 	 46.5052 	 -112.678 	 
H 	 -118.489 	 47.1063 	 -112.646 	 
C 	 -117.345 	 47.6222 	 -110.914 	 
H 	 -117.783 	 46.7619 	 -110.375 	 
H 	 -117.982 	 48.5399 	 -110.659 	 
C 	 -115.926 	 47.8233 	 -110.594 	 
H 	 -115.392 	 48.5229 	 -111.224 	 
H 	 -115.341 	 46.9137 	 -110.6 	 
H 	 -115.813 	 48.1579 	 -109.52 	 
H 	 -117.989 	 44.4728 	 -117.637 	 
H 	 -116.644 	 51.7642 	 -113.573 	 
