34

S 	 -147.236 	 4.48275 	 13.4836 	 
C 	 -146.987 	 3.59997 	 12.0222 	 
C 	 -145.656 	 3.18911 	 11.9263 	 
C 	 -144.958 	 3.40347 	 13.1661 	 
C 	 -145.718 	 3.96914 	 14.1851 	 
H 	 -143.95 	 3.03445 	 13.3564 	 
C 	 -145.007 	 2.55179 	 10.6844 	 
H 	 -143.942 	 2.54794 	 10.8009 	 
H 	 -145.274 	 3.24323 	 9.90054 	 
C 	 -145.384 	 1.10185 	 10.415 	 
H 	 -146.464 	 1.01799 	 10.1736 	 
H 	 -144.883 	 0.708357 	 9.53651 	 
C 	 -145.08 	 0.126121 	 11.4935 	 
H 	 -145.164 	 -0.873376 	 11.0902 	 
H 	 -144.03 	 0.241129 	 11.8221 	 
H 	 -145.719 	 0.25474 	 12.3317 	 
S 	 -143.974 	 3.0082 	 16.1442 	 
C 	 -144.133 	 3.47257 	 17.8124 	 
C 	 -144.966 	 4.57962 	 17.9248 	 
C 	 -145.506 	 5.05763 	 16.6805 	 
C 	 -145.197 	 4.19712 	 15.5999 	 
H 	 -145.107 	 4.92092 	 18.9192 	 
C 	 -146.403 	 6.25693 	 16.6599 	 
H 	 -146.779 	 6.41592 	 17.7448 	 
H 	 -147.178 	 5.9906 	 15.938 	 
C 	 -145.691 	 7.52479 	 16.1932 	 
H 	 -145.445 	 7.38052 	 15.1162 	 
H 	 -144.763 	 7.6542 	 16.7392 	 
C 	 -146.559 	 8.73551 	 16.3426 	 
H 	 -147.061 	 8.87483 	 17.3107 	 
H 	 -147.349 	 8.79674 	 15.6048 	 
H 	 -146.051 	 9.67072 	 16.1867 	 
H 	 -147.789 	 3.69393 	 11.2854 	 
H 	 -143.652 	 2.93367 	 18.6081 	 
