34

S 	 -68.9171 	 16.184 	 -69.4074 	 
C 	 -69.2543 	 15.7527 	 -67.7587 	 
C 	 -68.7068 	 16.6433 	 -66.8528 	 
C 	 -68.2982 	 17.8322 	 -67.5056 	 
C 	 -68.4466 	 17.8426 	 -68.9038 	 
H 	 -67.8372 	 18.6196 	 -66.9437 	 
C 	 -68.6337 	 16.4802 	 -65.3507 	 
H 	 -69.6624 	 16.728 	 -64.9267 	 
H 	 -67.9721 	 17.3477 	 -65.0852 	 
C 	 -68.1075 	 15.1477 	 -64.7648 	 
H 	 -68.0296 	 15.1698 	 -63.6183 	 
H 	 -68.7708 	 14.3061 	 -65.0848 	 
C 	 -66.664 	 14.7575 	 -65.2419 	 
H 	 -66.0588 	 14.0469 	 -64.6773 	 
H 	 -66.7766 	 14.2984 	 -66.1471 	 
H 	 -66.1347 	 15.6735 	 -65.4373 	 
S 	 -68.1407 	 18.5547 	 -71.5478 	 
C 	 -67.7047 	 20.1414 	 -71.991 	 
C 	 -67.5308 	 20.9272 	 -70.8313 	 
C 	 -67.7579 	 20.2347 	 -69.6 	 
C 	 -68.0506 	 18.8633 	 -69.823 	 
H 	 -67.5136 	 22.0036 	 -70.972 	 
C 	 -67.7454 	 21.0304 	 -68.258 	 
H 	 -67.3518 	 22.0434 	 -68.4468 	 
H 	 -67.1814 	 20.5218 	 -67.5628 	 
C 	 -69.1507 	 21.1943 	 -67.7011 	 
H 	 -69.0229 	 21.5862 	 -66.6996 	 
H 	 -69.5418 	 20.2856 	 -67.4374 	 
C 	 -70.0909 	 22.0203 	 -68.566 	 
H 	 -70.0127 	 21.6663 	 -69.5977 	 
H 	 -69.8725 	 23.0808 	 -68.5801 	 
H 	 -71.1094 	 21.9139 	 -68.2199 	 
H 	 -69.6437 	 14.8226 	 -67.4603 	 
H 	 -67.8096 	 20.4338 	 -72.9894 	 
