34

S 	 -117.305 	 24.8465 	 -20.3724 	 
C 	 -116.15 	 25.7446 	 -21.3164 	 
C 	 -115.692 	 26.9334 	 -20.6933 	 
C 	 -116.384 	 27.0633 	 -19.4128 	 
C 	 -117.285 	 26.0824 	 -19.1477 	 
H 	 -116.076 	 27.7321 	 -18.6537 	 
C 	 -114.558 	 27.8309 	 -21.2212 	 
H 	 -114.19 	 28.5 	 -20.4544 	 
H 	 -115.003 	 28.5188 	 -21.9225 	 
C 	 -113.434 	 27.0573 	 -21.8871 	 
H 	 -112.977 	 26.5428 	 -21.0555 	 
H 	 -113.813 	 26.3661 	 -22.6278 	 
C 	 -112.283 	 27.9468 	 -22.3692 	 
H 	 -111.696 	 28.4482 	 -21.5573 	 
H 	 -111.636 	 27.4503 	 -23.0675 	 
H 	 -112.658 	 28.8337 	 -22.8597 	 
S 	 -117.517 	 24.4019 	 -16.8516 	 
C 	 -118.353 	 24.9896 	 -15.5075 	 
C 	 -118.799 	 26.2826 	 -15.6935 	 
C 	 -118.481 	 26.8389 	 -16.9974 	 
C 	 -117.913 	 25.8918 	 -17.8264 	 
H 	 -119.295 	 26.7453 	 -14.8524 	 
C 	 -118.888 	 28.2423 	 -17.4282 	 
H 	 -117.935 	 28.7064 	 -17.6059 	 
H 	 -119.39 	 28.7769 	 -16.6394 	 
C 	 -119.876 	 28.355 	 -18.6545 	 
H 	 -119.329 	 27.8385 	 -19.3947 	 
H 	 -120.102 	 29.3476 	 -18.9527 	 
C 	 -121.166 	 27.5475 	 -18.5102 	 
H 	 -121.538 	 27.5144 	 -17.5179 	 
H 	 -121.122 	 26.4412 	 -18.6683 	 
H 	 -121.944 	 27.9078 	 -19.1631 	 
H 	 -115.6 	 25.3171 	 -22.136 	 
H 	 -118.565 	 24.368 	 -14.6836 	 
