34

S 	 -103.045 	 -1.84962 	 -105.185 	 
C 	 -103.959 	 -3.02675 	 -106.109 	 
C 	 -103.347 	 -4.25494 	 -106.192 	 
C 	 -102.21 	 -4.26536 	 -105.303 	 
C 	 -101.869 	 -3.06693 	 -104.739 	 
H 	 -101.544 	 -5.06644 	 -105.088 	 
C 	 -103.831 	 -5.5527 	 -106.908 	 
H 	 -104.606 	 -5.34914 	 -107.736 	 
H 	 -104.293 	 -6.28728 	 -106.257 	 
C 	 -102.714 	 -6.29636 	 -107.712 	 
H 	 -102.065 	 -5.56072 	 -108.198 	 
H 	 -102.048 	 -6.68293 	 -106.914 	 
C 	 -103.098 	 -7.48429 	 -108.502 	 
H 	 -103.729 	 -8.13777 	 -107.815 	 
H 	 -103.615 	 -7.32608 	 -109.458 	 
H 	 -102.129 	 -7.90091 	 -108.64 	 
S 	 -99.2005 	 -3.54362 	 -104.128 	 
C 	 -98.4371 	 -2.68244 	 -102.926 	 
C 	 -99.2701 	 -1.7954 	 -102.279 	 
C 	 -100.61 	 -1.85466 	 -102.777 	 
C 	 -100.745 	 -2.83018 	 -103.772 	 
H 	 -98.9516 	 -1.12127 	 -101.502 	 
C 	 -101.766 	 -1.13586 	 -102.04 	 
H 	 -102.751 	 -1.4187 	 -102.423 	 
H 	 -101.539 	 -0.0584893 	 -102.206 	 
C 	 -101.936 	 -1.32817 	 -100.513 	 
H 	 -102.784 	 -0.793918 	 -100.156 	 
H 	 -101.114 	 -0.713755 	 -100.09 	 
C 	 -101.878 	 -2.79975 	 -100.155 	 
H 	 -100.891 	 -3.1965 	 -100.481 	 
H 	 -102.578 	 -3.41653 	 -100.597 	 
H 	 -101.908 	 -2.9325 	 -99.1205 	 
H 	 -104.866 	 -2.74884 	 -106.673 	 
H 	 -97.4138 	 -2.87969 	 -102.647 	 
