34

S 	 -46.3297 	 15.1829 	 26.2767 	 
C 	 -47.1318 	 15.5315 	 24.7398 	 
C 	 -48.0717 	 16.5349 	 24.921 	 
C 	 -48.0625 	 17.1337 	 26.2286 	 
C 	 -47.0416 	 16.6033 	 27.0477 	 
H 	 -48.7665 	 17.8405 	 26.5833 	 
C 	 -48.9689 	 16.9064 	 23.7417 	 
H 	 -48.8936 	 16.135 	 23.0442 	 
H 	 -48.5388 	 17.7448 	 23.1308 	 
C 	 -50.4057 	 17.2491 	 23.996 	 
H 	 -50.439 	 18.2745 	 24.4874 	 
H 	 -50.8958 	 17.4386 	 23.0357 	 
C 	 -51.3408 	 16.213 	 24.5666 	 
H 	 -51.1362 	 15.924 	 25.6194 	 
H 	 -52.3151 	 16.6637 	 24.6761 	 
H 	 -51.3989 	 15.2955 	 24.0739 	 
S 	 -48.1593 	 17.337 	 29.3984 	 
C 	 -47.0531 	 17.6182 	 30.7677 	 
C 	 -45.7262 	 17.4168 	 30.4941 	 
C 	 -45.4977 	 17.0364 	 29.1043 	 
C 	 -46.7527 	 16.8759 	 28.4247 	 
H 	 -44.9978 	 17.454 	 31.2734 	 
C 	 -44.1198 	 17.075 	 28.3513 	 
H 	 -44.2533 	 17.4923 	 27.3923 	 
H 	 -43.8409 	 16.0546 	 27.9889 	 
C 	 -42.9482 	 17.6549 	 29.0922 	 
H 	 -43.2946 	 18.6715 	 29.3808 	 
H 	 -42.1281 	 17.848 	 28.4274 	 
C 	 -42.3906 	 16.976 	 30.3858 	 
H 	 -41.4356 	 17.434 	 30.6411 	 
H 	 -42.2442 	 15.9862 	 30.102 	 
H 	 -42.9967 	 17.0317 	 31.2927 	 
H 	 -46.9825 	 14.9787 	 23.8033 	 
H 	 -47.3526 	 18.0086 	 31.8077 	 
