34

S 	 -47.1366 	 11.8546 	 -17.5045 	 
C 	 -45.8369 	 11.1934 	 -16.5246 	 
C 	 -44.6599 	 11.8618 	 -16.7328 	 
C 	 -44.7696 	 12.8485 	 -17.7824 	 
C 	 -46.081 	 12.9466 	 -18.2577 	 
H 	 -43.982 	 13.4479 	 -18.1732 	 
C 	 -43.4028 	 11.5952 	 -15.9301 	 
H 	 -43.3228 	 10.5349 	 -15.6707 	 
H 	 -43.3781 	 12.2096 	 -15.0099 	 
C 	 -42.1219 	 11.9723 	 -16.7947 	 
H 	 -42.1193 	 11.509 	 -17.8075 	 
H 	 -42.0631 	 12.9866 	 -16.9632 	 
C 	 -40.8771 	 11.5715 	 -16.026 	 
H 	 -40.8381 	 10.5261 	 -15.9884 	 
H 	 -39.9422 	 11.9908 	 -16.4159 	 
H 	 -40.9448 	 11.9064 	 -14.923 	 
S 	 -47.0367 	 13.1238 	 -20.8868 	 
C 	 -47.3227 	 14.7161 	 -21.5104 	 
C 	 -47.1205 	 15.7258 	 -20.6064 	 
C 	 -46.609 	 15.1935 	 -19.3256 	 
C 	 -46.5574 	 13.7905 	 -19.3025 	 
H 	 -47.2881 	 16.7877 	 -20.8835 	 
C 	 -46.201 	 16.1625 	 -18.188 	 
H 	 -45.8589 	 15.6125 	 -17.2695 	 
H 	 -47.1571 	 16.6919 	 -18.0332 	 
C 	 -45.3764 	 17.3939 	 -18.5203 	 
H 	 -45.7653 	 17.9662 	 -19.3739 	 
H 	 -44.3442 	 17.1759 	 -18.9114 	 
C 	 -45.0692 	 18.4173 	 -17.3731 	 
H 	 -44.9178 	 17.8601 	 -16.4703 	 
H 	 -45.8106 	 19.1701 	 -17.2417 	 
H 	 -44.1638 	 18.94 	 -17.6449 	 
H 	 -45.919 	 10.499 	 -15.6906 	 
H 	 -47.5135 	 14.9045 	 -22.6053 	 
