34

S 	 -46.9078 	 -2.23257 	 20.766 	 
C 	 -47.5854 	 -0.991446 	 19.7869 	 
C 	 -48.3933 	 -1.55095 	 18.824 	 
C 	 -48.5499 	 -2.96717 	 18.9561 	 
C 	 -47.7591 	 -3.5126 	 19.9645 	 
H 	 -49.1742 	 -3.55401 	 18.2718 	 
C 	 -48.8683 	 -0.719515 	 17.6251 	 
H 	 -48.212 	 0.142739 	 17.507 	 
H 	 -49.8037 	 -0.209366 	 17.9802 	 
C 	 -49.0313 	 -1.47061 	 16.3001 	 
H 	 -48.1284 	 -2.06684 	 16.3575 	 
H 	 -49.9997 	 -2.10014 	 16.3886 	 
C 	 -49.2579 	 -0.543834 	 15.0303 	 
H 	 -50.245 	 -0.124554 	 14.9769 	 
H 	 -48.564 	 0.323005 	 15.0146 	 
H 	 -49.1409 	 -1.17742 	 14.1289 	 
S 	 -48.0748 	 -6.20618 	 19.2623 	 
C 	 -47.8894 	 -7.42127 	 20.4412 	 
C 	 -47.5019 	 -6.90155 	 21.6487 	 
C 	 -47.4769 	 -5.46976 	 21.6654 	 
C 	 -47.8629 	 -4.85207 	 20.4522 	 
H 	 -47.2014 	 -7.59884 	 22.4452 	 
C 	 -47.0945 	 -4.68181 	 22.9211 	 
H 	 -47.8449 	 -3.88784 	 23.025 	 
H 	 -46.1953 	 -4.11174 	 22.9479 	 
C 	 -47.0323 	 -5.36529 	 24.275 	 
H 	 -46.2763 	 -6.16832 	 24.2135 	 
H 	 -48.0259 	 -5.65441 	 24.5741 	 
C 	 -46.515 	 -4.42806 	 25.3026 	 
H 	 -47.1099 	 -3.51554 	 25.2894 	 
H 	 -45.498 	 -4.08276 	 25.1018 	 
H 	 -46.6648 	 -4.71395 	 26.312 	 
H 	 -47.3034 	 0.032538 	 19.8572 	 
H 	 -47.9505 	 -8.50548 	 20.1935 	 
