34

S 	 -32.7557 	 -5.07119 	 0.95101 	 
C 	 -31.667 	 -5.46678 	 2.23963 	 
C 	 -32.1905 	 -6.58929 	 2.92504 	 
C 	 -33.2074 	 -7.31544 	 2.20781 	 
C 	 -33.6273 	 -6.57668 	 1.1162 	 
H 	 -33.6297 	 -8.2861 	 2.45332 	 
C 	 -31.6471 	 -7.08178 	 4.14774 	 
H 	 -30.7349 	 -6.54896 	 4.33051 	 
H 	 -31.4115 	 -8.07519 	 4.08492 	 
C 	 -32.4484 	 -6.72706 	 5.39939 	 
H 	 -33.4409 	 -7.09863 	 5.34429 	 
H 	 -32.0161 	 -7.23905 	 6.26142 	 
C 	 -32.4593 	 -5.27711 	 5.72865 	 
H 	 -33.0594 	 -4.80581 	 4.89765 	 
H 	 -32.8661 	 -5.03376 	 6.73083 	 
H 	 -31.4586 	 -4.93837 	 5.73013 	 
S 	 -34.1704 	 -7.93426 	 -1.24719 	 
C 	 -35.8221 	 -8.41953 	 -1.56309 	 
C 	 -36.6877 	 -7.80651 	 -0.638262 	 
C 	 -36.0113 	 -7.03846 	 0.322223 	 
C 	 -34.6486 	 -7.14795 	 0.229444 	 
H 	 -37.7765 	 -7.9326 	 -0.687645 	 
C 	 -36.7866 	 -6.38666 	 1.39613 	 
H 	 -36.0851 	 -6.16044 	 2.22832 	 
H 	 -37.6148 	 -7.13521 	 1.72953 	 
C 	 -37.3967 	 -4.9766 	 0.932133 	 
H 	 -37.8437 	 -5.1133 	 -0.0808853 	 
H 	 -36.6637 	 -4.17838 	 0.898402 	 
C 	 -38.5566 	 -4.58698 	 1.85855 	 
H 	 -39.138 	 -3.80332 	 1.27696 	 
H 	 -38.2002 	 -4.16726 	 2.79997 	 
H 	 -39.2028 	 -5.41906 	 2.02829 	 
H 	 -31.0431 	 -4.74423 	 2.67864 	 
H 	 -36.1622 	 -9.08385 	 -2.30134 	 
