34

S 	 -133.666 	 60.487 	 -63.1837 	 
C 	 -133.523 	 62.1282 	 -63.6969 	 
C 	 -132.381 	 62.6874 	 -63.2118 	 
C 	 -131.64 	 61.8028 	 -62.3472 	 
C 	 -132.204 	 60.5534 	 -62.2517 	 
H 	 -130.731 	 62.0062 	 -61.7842 	 
C 	 -131.897 	 64.0567 	 -63.5289 	 
H 	 -132.31 	 64.4182 	 -64.5281 	 
H 	 -130.818 	 64.1355 	 -63.7348 	 
C 	 -132.385 	 65.1302 	 -62.4925 	 
H 	 -131.893 	 64.7568 	 -61.5934 	 
H 	 -131.959 	 66.0549 	 -62.7356 	 
C 	 -133.894 	 65.2946 	 -62.2449 	 
H 	 -134.369 	 64.4347 	 -61.7118 	 
H 	 -134.041 	 66.0846 	 -61.5535 	 
H 	 -134.384 	 65.6045 	 -63.1694 	 
S 	 -132.94 	 58.9824 	 -60.0545 	 
C 	 -131.654 	 57.9944 	 -59.3174 	 
C 	 -130.433 	 58.2403 	 -59.9299 	 
C 	 -130.461 	 59.1502 	 -61.0636 	 
C 	 -131.773 	 59.5562 	 -61.2855 	 
H 	 -129.664 	 57.6911 	 -59.5073 	 
C 	 -129.236 	 59.4775 	 -61.8891 	 
H 	 -128.819 	 60.3633 	 -61.4808 	 
H 	 -129.499 	 59.8564 	 -62.9609 	 
C 	 -128.092 	 58.462 	 -61.9251 	 
H 	 -127.847 	 58.1854 	 -60.8988 	 
H 	 -127.176 	 58.8809 	 -62.4565 	 
C 	 -128.477 	 57.1808 	 -62.7806 	 
H 	 -127.73 	 56.529 	 -63.2603 	 
H 	 -129.128 	 57.4399 	 -63.6226 	 
H 	 -129.154 	 56.4804 	 -62.2858 	 
H 	 -134.148 	 62.5897 	 -64.3999 	 
H 	 -131.694 	 57.3224 	 -58.4129 	 
