34

S 	 -77.418 	 -4.96985 	 4.69526 	 
C 	 -75.7163 	 -5.00644 	 5.11954 	 
C 	 -75.2304 	 -6.2781 	 5.20205 	 
C 	 -76.2369 	 -7.22631 	 4.82969 	 
C 	 -77.5251 	 -6.67245 	 4.56845 	 
H 	 -76.0457 	 -8.25825 	 4.75088 	 
C 	 -73.765 	 -6.7043 	 5.29736 	 
H 	 -73.5142 	 -6.40734 	 4.30645 	 
H 	 -73.6637 	 -7.75205 	 5.44366 	 
C 	 -72.904 	 -5.81509 	 6.22608 	 
H 	 -71.9518 	 -6.23471 	 6.02115 	 
H 	 -72.8658 	 -4.80861 	 5.8757 	 
C 	 -73.2725 	 -5.78925 	 7.71009 	 
H 	 -74.313 	 -5.52401 	 7.80689 	 
H 	 -73.0875 	 -6.74388 	 8.23169 	 
H 	 -72.8028 	 -5.01403 	 8.31181 	 
S 	 -80.0862 	 -6.43713 	 3.66571 	 
C 	 -81.0726 	 -7.80334 	 3.25943 	 
C 	 -80.4321 	 -8.9547 	 3.592 	 
C 	 -79.1269 	 -8.70698 	 4.17028 	 
C 	 -78.7478 	 -7.37652 	 4.13742 	 
H 	 -80.9638 	 -9.8617 	 3.51994 	 
C 	 -78.2934 	 -9.79122 	 4.88512 	 
H 	 -78.9887 	 -10.5726 	 5.26145 	 
H 	 -77.8268 	 -9.34365 	 5.79393 	 
C 	 -77.2701 	 -10.4173 	 3.97989 	 
H 	 -76.7216 	 -9.65968 	 3.49231 	 
H 	 -77.7194 	 -11.0237 	 3.16571 	 
C 	 -76.271 	 -11.3365 	 4.76254 	 
H 	 -76.8612 	 -11.9126 	 5.56072 	 
H 	 -75.4989 	 -10.7687 	 5.28155 	 
H 	 -75.6743 	 -12.0764 	 4.1786 	 
H 	 -75.1476 	 -4.17419 	 5.40949 	 
H 	 -82.0806 	 -7.87427 	 2.78656 	 
