34

S 	 -107.836 	 56.3693 	 -88.1902 	 
C 	 -106.408 	 56.2355 	 -87.1825 	 
C 	 -105.306 	 55.803 	 -87.9436 	 
C 	 -105.528 	 56.0432 	 -89.3654 	 
C 	 -106.839 	 56.4568 	 -89.647 	 
H 	 -104.915 	 55.8436 	 -90.2199 	 
C 	 -104.05 	 55.4022 	 -87.3578 	 
H 	 -103.716 	 54.5046 	 -87.8945 	 
H 	 -104.198 	 55.0995 	 -86.3039 	 
C 	 -102.927 	 56.4873 	 -87.3706 	 
H 	 -102.646 	 56.7016 	 -88.4393 	 
H 	 -103.456 	 57.3837 	 -87.0187 	 
C 	 -101.774 	 56.2428 	 -86.4945 	 
H 	 -100.907 	 57.0543 	 -86.5776 	 
H 	 -102.1 	 56.1803 	 -85.4116 	 
H 	 -101.383 	 55.1968 	 -86.6756 	 
S 	 -108.813 	 55.5717 	 -91.2582 	 
C 	 -108.814 	 55.8787 	 -92.9784 	 
C 	 -107.766 	 56.7474 	 -93.3335 	 
C 	 -106.863 	 57.0182 	 -92.2077 	 
C 	 -107.334 	 56.5281 	 -91.0093 	 
H 	 -107.771 	 57.061 	 -94.3842 	 
C 	 -105.572 	 57.7359 	 -92.3727 	 
H 	 -104.903 	 57.5428 	 -91.5429 	 
H 	 -105.695 	 58.8489 	 -92.4611 	 
C 	 -104.636 	 57.1626 	 -93.4484 	 
H 	 -105.166 	 57.2673 	 -94.3617 	 
H 	 -104.461 	 56.1081 	 -93.252 	 
C 	 -103.267 	 57.9066 	 -93.5101 	 
H 	 -102.57 	 57.5464 	 -94.2727 	 
H 	 -102.83 	 58.027 	 -92.5105 	 
H 	 -103.343 	 58.9421 	 -93.7458 	 
H 	 -106.449 	 56.0202 	 -86.1098 	 
H 	 -109.476 	 55.5814 	 -93.6692 	 
