34

S 	 -105.592 	 61.4416 	 -98.4364 	 
C 	 -106.502 	 60.4336 	 -99.5405 	 
C 	 -105.665 	 59.9532 	 -100.575 	 
C 	 -104.343 	 60.4835 	 -100.488 	 
C 	 -104.131 	 61.2657 	 -99.3949 	 
H 	 -103.489 	 60.3161 	 -101.206 	 
C 	 -106.166 	 59.0982 	 -101.738 	 
H 	 -105.273 	 58.6133 	 -102.077 	 
H 	 -106.637 	 59.636 	 -102.625 	 
C 	 -107.076 	 58.033 	 -101.268 	 
H 	 -107.99 	 58.4248 	 -100.839 	 
H 	 -107.218 	 57.4224 	 -102.206 	 
C 	 -106.405 	 57.0515 	 -100.333 	 
H 	 -105.343 	 56.8307 	 -100.473 	 
H 	 -106.49 	 57.3784 	 -99.3263 	 
H 	 -106.945 	 56.0347 	 -100.21 	 
S 	 -102.744 	 63.6043 	 -98.8804 	 
C 	 -101.086 	 63.4487 	 -98.3322 	 
C 	 -100.683 	 62.1648 	 -98.1949 	 
C 	 -101.752 	 61.2254 	 -98.4768 	 
C 	 -102.887 	 61.8301 	 -98.9301 	 
H 	 -99.7087 	 61.8592 	 -97.985 	 
C 	 -101.595 	 59.6953 	 -98.3226 	 
H 	 -102.47 	 59.178 	 -98.7708 	 
H 	 -101.636 	 59.4019 	 -97.2877 	 
C 	 -100.421 	 59.0678 	 -99.0371 	 
H 	 -99.4943 	 59.443 	 -98.6975 	 
H 	 -100.428 	 59.4289 	 -100.065 	 
C 	 -100.422 	 57.5424 	 -98.9338 	 
H 	 -100.915 	 57.1143 	 -99.8772 	 
H 	 -100.874 	 57.1669 	 -98.0136 	 
H 	 -99.3828 	 57.1833 	 -98.9268 	 
H 	 -107.537 	 60.1129 	 -99.3558 	 
H 	 -100.349 	 64.2401 	 -98.4724 	 
