34

S 	 -128.48 	 12.6943 	 -12.4806 	 
C 	 -128.12 	 11.5618 	 -11.1028 	 
C 	 -128.04 	 10.2774 	 -11.5751 	 
C 	 -127.972 	 10.2554 	 -13.0046 	 
C 	 -128.383 	 11.3988 	 -13.64 	 
H 	 -127.678 	 9.38273 	 -13.5566 	 
C 	 -127.65 	 9.0548 	 -10.7193 	 
H 	 -128.405 	 8.33453 	 -11.0597 	 
H 	 -127.938 	 9.26925 	 -9.68119 	 
C 	 -126.168 	 8.60247 	 -10.74 	 
H 	 -126.021 	 7.64545 	 -10.2776 	 
H 	 -126.039 	 8.39099 	 -11.7284 	 
C 	 -125.173 	 9.48619 	 -9.98979 	 
H 	 -125.583 	 9.94376 	 -9.06714 	 
H 	 -124.208 	 8.90916 	 -9.78328 	 
H 	 -124.984 	 10.3275 	 -10.5762 	 
S 	 -127.884 	 13.1578 	 -15.6433 	 
C 	 -128.454 	 12.8126 	 -17.2905 	 
C 	 -128.768 	 11.466 	 -17.4256 	 
C 	 -128.656 	 10.7188 	 -16.2064 	 
C 	 -128.289 	 11.5308 	 -15.1281 	 
H 	 -129.059 	 11.2523 	 -18.4305 	 
C 	 -129.129 	 9.28208 	 -16.198 	 
H 	 -128.429 	 8.7223 	 -15.5912 	 
H 	 -128.97 	 8.99713 	 -17.2776 	 
C 	 -130.589 	 9.00183 	 -15.862 	 
H 	 -131.186 	 9.4782 	 -16.6388 	 
H 	 -130.868 	 9.5693 	 -14.9499 	 
C 	 -130.844 	 7.54097 	 -15.4757 	 
H 	 -130.207 	 7.45335 	 -14.5705 	 
H 	 -130.562 	 6.77231 	 -16.1771 	 
H 	 -131.91 	 7.39354 	 -15.1373 	 
H 	 -128.21 	 11.8207 	 -10.0731 	 
H 	 -128.531 	 13.5171 	 -18.1019 	 
