34

S 	 -69.6273 	 0.506869 	 -68.8788 	 
C 	 -69.0419 	 1.88822 	 -69.8237 	 
C 	 -68.2925 	 1.39399 	 -70.9158 	 
C 	 -68.2402 	 -0.0602289 	 -70.906 	 
C 	 -68.8218 	 -0.65631 	 -69.7927 	 
H 	 -67.6394 	 -0.639659 	 -71.6578 	 
C 	 -67.5911 	 2.11364 	 -71.9898 	 
H 	 -68.1825 	 2.35284 	 -72.855 	 
H 	 -66.9104 	 1.37083 	 -72.4307 	 
C 	 -66.7523 	 3.35791 	 -71.4489 	 
H 	 -67.36 	 3.91604 	 -70.7777 	 
H 	 -66.0098 	 2.89548 	 -70.808 	 
C 	 -66.2644 	 4.26879 	 -72.618 	 
H 	 -65.6363 	 3.83015 	 -73.3309 	 
H 	 -67.0323 	 4.76463 	 -73.1826 	 
H 	 -65.7415 	 5.12245 	 -72.1711 	 
S 	 -70.6023 	 -2.73866 	 -69.8545 	 
C 	 -70.1522 	 -4.32487 	 -69.2162 	 
C 	 -68.8341 	 -4.31245 	 -68.8253 	 
C 	 -68.1402 	 -3.1136 	 -69.0497 	 
C 	 -69.0306 	 -2.08439 	 -69.4988 	 
H 	 -68.2911 	 -5.18615 	 -68.4949 	 
C 	 -66.6337 	 -2.85358 	 -68.6548 	 
H 	 -66.5523 	 -3.01693 	 -67.6355 	 
H 	 -66.5161 	 -1.81136 	 -68.9058 	 
C 	 -65.7258 	 -3.69691 	 -69.5616 	 
H 	 -65.7329 	 -3.40605 	 -70.5853 	 
H 	 -65.9098 	 -4.77897 	 -69.4123 	 
C 	 -64.2985 	 -3.61815 	 -69.1052 	 
H 	 -63.6368 	 -4.24242 	 -69.6571 	 
H 	 -64.2053 	 -3.91251 	 -68.0304 	 
H 	 -63.9055 	 -2.55578 	 -69.1799 	 
H 	 -69.424 	 2.92844 	 -69.6803 	 
H 	 -70.719 	 -5.19455 	 -69.0885 	 
