34

S 	 -68.194 	 -44.5041 	 -90.343 	 
C 	 -66.578 	 -44.4159 	 -90.9743 	 
C 	 -65.8722 	 -45.5263 	 -90.678 	 
C 	 -66.5789 	 -46.404 	 -89.8531 	 
C 	 -67.8609 	 -46.0034 	 -89.5869 	 
H 	 -66.2009 	 -47.332 	 -89.4428 	 
C 	 -64.4116 	 -45.7223 	 -91.1032 	 
H 	 -64.5152 	 -45.6373 	 -92.1889 	 
H 	 -64.1548 	 -46.7852 	 -91.0334 	 
C 	 -63.3759 	 -44.8726 	 -90.3788 	 
H 	 -62.4747 	 -45.1192 	 -90.827 	 
H 	 -63.6007 	 -43.8386 	 -90.7175 	 
C 	 -63.1369 	 -45.1845 	 -88.9024 	 
H 	 -63.9995 	 -44.9339 	 -88.4262 	 
H 	 -62.7833 	 -46.243 	 -88.6953 	 
H 	 -62.5175 	 -44.424 	 -88.4283 	 
S 	 -70.2677 	 -46.0453 	 -88.1884 	 
C 	 -70.9431 	 -47.5647 	 -87.6793 	 
C 	 -70.2381 	 -48.5895 	 -88.2529 	 
C 	 -69.004 	 -48.1965 	 -88.8257 	 
C 	 -68.8871 	 -46.7854 	 -88.9193 	 
H 	 -70.6176 	 -49.6039 	 -88.1512 	 
C 	 -68.091 	 -49.2372 	 -89.3783 	 
H 	 -67.1842 	 -49.1306 	 -88.8054 	 
H 	 -67.6831 	 -48.9998 	 -90.3545 	 
C 	 -68.4345 	 -50.7584 	 -89.397 	 
H 	 -67.6437 	 -51.2735 	 -89.9867 	 
H 	 -69.4529 	 -50.9304 	 -89.7549 	 
C 	 -68.5622 	 -51.2659 	 -87.9907 	 
H 	 -67.6678 	 -51.3727 	 -87.4857 	 
H 	 -69.048 	 -52.2477 	 -87.982 	 
H 	 -69.0812 	 -50.6371 	 -87.2544 	 
H 	 -66.2964 	 -43.7686 	 -91.8082 	 
H 	 -71.8397 	 -47.7756 	 -87.1638 	 
