34

S 	 -146.434 	 31.2434 	 -14.4214 	 
C 	 -145.561 	 30.7684 	 -15.8077 	 
C 	 -145.796 	 29.4355 	 -16.1562 	 
C 	 -146.869 	 28.9392 	 -15.3623 	 
C 	 -147.423 	 29.8171 	 -14.4741 	 
H 	 -147.352 	 28.0115 	 -15.4407 	 
C 	 -145.127 	 28.661 	 -17.3233 	 
H 	 -145.185 	 27.5587 	 -17.0809 	 
H 	 -144.003 	 28.7471 	 -17.3764 	 
C 	 -145.748 	 28.7387 	 -18.6869 	 
H 	 -146.894 	 28.7059 	 -18.7117 	 
H 	 -145.716 	 29.7801 	 -19.1064 	 
C 	 -145.067 	 27.7872 	 -19.689 	 
H 	 -144.006 	 27.8917 	 -19.5793 	 
H 	 -145.412 	 26.7939 	 -19.4351 	 
H 	 -145.288 	 28.0497 	 -20.7096 	 
S 	 -150.148 	 30.3832 	 -14.2411 	 
C 	 -150.911 	 29.9698 	 -12.7423 	 
C 	 -150.045 	 29.3344 	 -11.8921 	 
C 	 -148.75 	 29.1111 	 -12.44 	 
C 	 -148.636 	 29.6649 	 -13.7037 	 
H 	 -150.321 	 29.1513 	 -10.836 	 
C 	 -147.623 	 28.3743 	 -11.6854 	 
H 	 -148.087 	 28.1248 	 -10.7611 	 
H 	 -146.888 	 29.1375 	 -11.3967 	 
C 	 -147.204 	 26.9719 	 -12.3029 	 
H 	 -146.549 	 26.5433 	 -11.5742 	 
H 	 -146.649 	 27.1248 	 -13.1889 	 
C 	 -148.325 	 25.9011 	 -12.3023 	 
H 	 -148.989 	 26.0551 	 -13.1502 	 
H 	 -148.882 	 26.0817 	 -11.3694 	 
H 	 -147.93 	 24.8988 	 -12.2524 	 
H 	 -144.811 	 31.4583 	 -16.2997 	 
H 	 -151.996 	 30.0338 	 -12.492 	 
