34

S 	 -100.071 	 -3.63366 	 -120.873 	 
C 	 -101.396 	 -4.64443 	 -121.511 	 
C 	 -102.489 	 -3.86433 	 -121.873 	 
C 	 -102.142 	 -2.46109 	 -121.931 	 
C 	 -100.826 	 -2.20876 	 -121.49 	 
H 	 -102.729 	 -1.59779 	 -122.229 	 
C 	 -103.904 	 -4.26535 	 -122.32 	 
H 	 -103.977 	 -5.33428 	 -122.553 	 
H 	 -104.098 	 -3.79271 	 -123.286 	 
C 	 -104.952 	 -3.8263 	 -121.285 	 
H 	 -104.606 	 -4.16278 	 -120.334 	 
H 	 -105.067 	 -2.73028 	 -121.292 	 
C 	 -106.306 	 -4.51483 	 -121.547 	 
H 	 -106.379 	 -5.59644 	 -121.304 	 
H 	 -106.925 	 -3.87365 	 -120.983 	 
H 	 -106.499 	 -4.47129 	 -122.639 	 
S 	 -99.6859 	 -0.707716 	 -119.63 	 
C 	 -99.1417 	 0.838581 	 -119.974 	 
C 	 -99.2584 	 1.14398 	 -121.322 	 
C 	 -99.9872 	 0.205818 	 -122.084 	 
C 	 -100.231 	 -0.911631 	 -121.301 	 
H 	 -99.0895 	 2.23123 	 -121.531 	 
C 	 -100.142 	 0.200902 	 -123.642 	 
H 	 -100.617 	 1.1443 	 -123.889 	 
H 	 -100.827 	 -0.616549 	 -123.719 	 
C 	 -98.9053 	 -0.0641892 	 -124.399 	 
H 	 -98.5081 	 -1.05717 	 -124.007 	 
H 	 -98.255 	 0.778405 	 -124.127 	 
C 	 -99.0316 	 -0.2993 	 -125.927 	 
H 	 -99.867 	 -0.982258 	 -126.122 	 
H 	 -98.0458 	 -0.677486 	 -126.26 	 
H 	 -99.1459 	 0.683438 	 -126.436 	 
H 	 -101.448 	 -5.64566 	 -121.374 	 
H 	 -98.647 	 1.46099 	 -119.223 	 
