34

S 	 -106.568 	 32.4078 	 -23.929 	 
C 	 -105.072 	 32.2814 	 -23.1429 	 
C 	 -104.779 	 33.4498 	 -22.3809 	 
C 	 -105.912 	 34.3094 	 -22.3335 	 
C 	 -106.992 	 33.8116 	 -22.9938 	 
H 	 -105.931 	 35.1931 	 -21.7157 	 
C 	 -103.566 	 33.6604 	 -21.5292 	 
H 	 -103.501 	 34.7675 	 -21.5352 	 
H 	 -102.74 	 33.2339 	 -22.1298 	 
C 	 -103.637 	 33.1132 	 -20.0589 	 
H 	 -104.531 	 33.5034 	 -19.6432 	 
H 	 -103.816 	 32.0691 	 -20.2156 	 
C 	 -102.37 	 33.3148 	 -19.2657 	 
H 	 -102.366 	 34.2814 	 -18.7423 	 
H 	 -102.309 	 32.5167 	 -18.4697 	 
H 	 -101.582 	 33.1277 	 -19.9234 	 
S 	 -108.79 	 35.0327 	 -21.3588 	 
C 	 -110.451 	 35.3153 	 -21.9804 	 
C 	 -110.586 	 35.1328 	 -23.3051 	 
C 	 -109.44 	 34.455 	 -23.8698 	 
C 	 -108.337 	 34.39 	 -22.9494 	 
H 	 -111.555 	 35.2767 	 -23.7361 	 
C 	 -109.439 	 34.018 	 -25.2891 	 
H 	 -108.348 	 34.1057 	 -25.5491 	 
H 	 -109.876 	 34.8023 	 -25.9052 	 
C 	 -110.1 	 32.7519 	 -25.6515 	 
H 	 -109.756 	 31.9485 	 -25.0317 	 
H 	 -109.805 	 32.6115 	 -26.6668 	 
C 	 -111.619 	 32.6674 	 -25.6586 	 
H 	 -112.062 	 31.7878 	 -26.0376 	 
H 	 -112.062 	 33.4683 	 -26.3008 	 
H 	 -112.049 	 32.7908 	 -24.6596 	 
H 	 -104.345 	 31.4821 	 -23.357 	 
H 	 -111.236 	 35.9047 	 -21.4312 	 
