34

S 	 -43.4625 	 -50.1235 	 -71.0946 	 
C 	 -42.1923 	 -48.9339 	 -71.1766 	 
C 	 -41.4578 	 -48.7736 	 -70 	 
C 	 -42.0573 	 -49.5466 	 -68.956 	 
C 	 -43.0664 	 -50.3775 	 -69.3894 	 
H 	 -41.7399 	 -49.5088 	 -67.9059 	 
C 	 -40.2694 	 -47.749 	 -69.8498 	 
H 	 -39.6257 	 -47.8266 	 -70.7107 	 
H 	 -39.6114 	 -48.068 	 -68.9902 	 
C 	 -40.7879 	 -46.2659 	 -69.6274 	 
H 	 -39.8352 	 -45.6952 	 -69.6274 	 
H 	 -41.4042 	 -45.9066 	 -70.4566 	 
C 	 -41.5065 	 -46.1793 	 -68.2776 	 
H 	 -40.7855 	 -45.6439 	 -67.6615 	 
H 	 -42.4406 	 -45.6416 	 -68.3414 	 
H 	 -41.709 	 -47.0774 	 -67.7609 	 
S 	 -44.1041 	 -52.8943 	 -69.1465 	 
C 	 -44.9707 	 -53.306 	 -67.7245 	 
C 	 -45.0272 	 -52.2498 	 -66.7735 	 
C 	 -44.3839 	 -51.0763 	 -67.2584 	 
C 	 -43.8827 	 -51.2493 	 -68.5642 	 
H 	 -45.4296 	 -52.4992 	 -65.8109 	 
C 	 -44.4327 	 -49.7662 	 -66.4362 	 
H 	 -43.5571 	 -49.2751 	 -66.6089 	 
H 	 -44.4482 	 -49.9993 	 -65.3288 	 
C 	 -45.6537 	 -48.8942 	 -66.5484 	 
H 	 -45.7913 	 -48.2183 	 -65.7019 	 
H 	 -46.5162 	 -49.5172 	 -66.4303 	 
C 	 -45.6593 	 -48.1435 	 -67.9076 	 
H 	 -44.9643 	 -47.3 	 -68.0975 	 
H 	 -46.6408 	 -47.6935 	 -68.0722 	 
H 	 -45.5358 	 -48.8692 	 -68.7962 	 
H 	 -41.9677 	 -48.461 	 -72.1185 	 
H 	 -45.3285 	 -54.2589 	 -67.401 	 
