34

S 	 -112.716 	 50.3916 	 -118.361 	 
C 	 -111.973 	 49.3268 	 -119.535 	 
C 	 -111.156 	 48.354 	 -118.964 	 
C 	 -110.905 	 48.697 	 -117.606 	 
C 	 -111.67 	 49.7521 	 -117.096 	 
H 	 -110.149 	 48.2465 	 -116.989 	 
C 	 -110.634 	 47.1964 	 -119.738 	 
H 	 -111.174 	 47.1292 	 -120.687 	 
H 	 -110.98 	 46.2252 	 -119.268 	 
C 	 -109.118 	 47.2561 	 -120.096 	 
H 	 -108.593 	 47.2394 	 -119.145 	 
H 	 -108.78 	 46.3331 	 -120.652 	 
C 	 -108.808 	 48.5877 	 -120.804 	 
H 	 -109.042 	 49.4961 	 -120.248 	 
H 	 -107.762 	 48.5276 	 -121.047 	 
H 	 -109.308 	 48.5646 	 -121.696 	 
S 	 -110.736 	 52.1945 	 -116.322 	 
C 	 -110.268 	 52.4505 	 -114.687 	 
C 	 -110.39 	 51.2958 	 -113.902 	 
C 	 -110.949 	 50.2319 	 -114.615 	 
C 	 -111.265 	 50.5441 	 -115.944 	 
H 	 -109.935 	 51.2834 	 -112.927 	 
C 	 -111.249 	 48.9494 	 -113.795 	 
H 	 -110.978 	 49.1025 	 -112.766 	 
H 	 -110.504 	 48.2366 	 -114.182 	 
C 	 -112.656 	 48.366 	 -113.899 	 
H 	 -112.875 	 47.4923 	 -113.222 	 
H 	 -112.892 	 48.1739 	 -114.907 	 
C 	 -113.785 	 49.3066 	 -113.552 	 
H 	 -114.214 	 49.7284 	 -114.492 	 
H 	 -113.414 	 50.0993 	 -112.967 	 
H 	 -114.536 	 48.7797 	 -112.907 	 
H 	 -112.317 	 49.3082 	 -120.523 	 
H 	 -109.851 	 53.3897 	 -114.224 	 
