34

S 	 -50.5089 	 -48.8841 	 -78.366 	 
C 	 -49.4687 	 -49.1747 	 -79.7688 	 
C 	 -49.8394 	 -50.3285 	 -80.5293 	 
C 	 -50.8133 	 -51.0985 	 -79.8071 	 
C 	 -51.2534 	 -50.4202 	 -78.6736 	 
H 	 -51.2672 	 -52.0642 	 -80.0697 	 
C 	 -49.3228 	 -50.7769 	 -81.8959 	 
H 	 -49.1455 	 -51.8288 	 -81.7456 	 
H 	 -48.3464 	 -50.2997 	 -82.146 	 
C 	 -50.324 	 -50.6679 	 -83.048 	 
H 	 -50.0988 	 -51.2673 	 -83.9865 	 
H 	 -51.2901 	 -51.0472 	 -82.5993 	 
C 	 -50.5316 	 -49.1815 	 -83.3949 	 
H 	 -50.8605 	 -48.6496 	 -82.4759 	 
H 	 -49.708 	 -48.671 	 -83.8858 	 
H 	 -51.37 	 -49.0322 	 -84.1301 	 
S 	 -51.7187 	 -52.4515 	 -76.7769 	 
C 	 -53.3804 	 -52.6905 	 -76.399 	 
C 	 -54.2232 	 -51.6416 	 -76.7956 	 
C 	 -53.5694 	 -50.6978 	 -77.6611 	 
C 	 -52.2204 	 -51.0407 	 -77.7518 	 
H 	 -55.2793 	 -51.8347 	 -76.5886 	 
C 	 -54.3706 	 -49.6529 	 -78.436 	 
H 	 -55.0152 	 -50.2536 	 -79.0468 	 
H 	 -53.7844 	 -49.094 	 -79.1451 	 
C 	 -55.2811 	 -48.5975 	 -77.7327 	 
H 	 -54.6116 	 -48.0674 	 -76.9652 	 
H 	 -56.0344 	 -49.171 	 -77.2152 	 
C 	 -55.8257 	 -47.4486 	 -78.584 	 
H 	 -56.5718 	 -47.7644 	 -79.393 	 
H 	 -55.1046 	 -46.8052 	 -79.0289 	 
H 	 -56.4113 	 -46.7564 	 -77.9768 	 
H 	 -48.6953 	 -48.5206 	 -80.1954 	 
H 	 -53.7693 	 -53.5466 	 -75.8827 	 
