34

S 	 -93.247 	 16.0209 	 -118.788 	 
C 	 -91.8908 	 16.2228 	 -117.679 	 
C 	 -91.375 	 14.9663 	 -117.42 	 
C 	 -91.8962 	 13.9824 	 -118.335 	 
C 	 -92.9447 	 14.3392 	 -119.12 	 
H 	 -91.7317 	 12.8396 	 -118.299 	 
C 	 -90.3834 	 14.654 	 -116.283 	 
H 	 -89.9405 	 15.5224 	 -115.763 	 
H 	 -89.594 	 14.1944 	 -116.839 	 
C 	 -90.8714 	 13.6448 	 -115.258 	 
H 	 -90.0086 	 13.5352 	 -114.508 	 
H 	 -91.7538 	 14.0409 	 -114.7 	 
C 	 -90.9908 	 12.1769 	 -115.62 	 
H 	 -91.2367 	 11.6257 	 -114.717 	 
H 	 -91.6847 	 11.9571 	 -116.36 	 
H 	 -90.093 	 11.8106 	 -116.014 	 
S 	 -95.519 	 13.4339 	 -119.287 	 
C 	 -95.8803 	 12.0208 	 -120.245 	 
C 	 -94.7105 	 11.46 	 -120.763 	 
C 	 -93.557 	 12.313 	 -120.563 	 
C 	 -93.8305 	 13.4222 	 -119.773 	 
H 	 -94.7332 	 10.5562 	 -121.319 	 
C 	 -92.1586 	 11.9949 	 -121.096 	 
H 	 -91.5594 	 11.5655 	 -120.384 	 
H 	 -91.7599 	 12.9441 	 -121.337 	 
C 	 -92.0572 	 11.0654 	 -122.308 	 
H 	 -92.637 	 11.4402 	 -123.113 	 
H 	 -92.4633 	 10.1171 	 -122.018 	 
C 	 -90.6034 	 10.7415 	 -122.696 	 
H 	 -90.0069 	 11.4982 	 -123.092 	 
H 	 -90.6331 	 9.94105 	 -123.405 	 
H 	 -90.1034 	 10.2884 	 -121.828 	 
H 	 -91.6749 	 16.9841 	 -117.063 	 
H 	 -96.9041 	 11.611 	 -120.451 	 
