34

S 	 -58.9148 	 10.2263 	 22.3534 	 
C 	 -58.913 	 11.3826 	 21.099 	 
C 	 -59.297 	 10.7974 	 19.8822 	 
C 	 -59.2449 	 9.37732 	 19.9949 	 
C 	 -59.0022 	 8.83649 	 21.2446 	 
H 	 -59.5382 	 8.67049 	 19.2552 	 
C 	 -59.6878 	 11.6822 	 18.673 	 
H 	 -60.1477 	 12.6603 	 18.9641 	 
H 	 -60.4003 	 11.2436 	 18.0093 	 
C 	 -58.4479 	 12.0506 	 17.7968 	 
H 	 -57.7681 	 12.6088 	 18.4168 	 
H 	 -57.926 	 11.111 	 17.5015 	 
C 	 -58.7072 	 12.9071 	 16.585 	 
H 	 -57.7975 	 13.1205 	 16.0673 	 
H 	 -59.4088 	 12.262 	 16.0015 	 
H 	 -59.0938 	 13.9103 	 16.7885 	 
S 	 -59.5747 	 6.98143 	 23.3136 	 
C 	 -58.8535 	 5.39339 	 23.222 	 
C 	 -58.0738 	 5.24691 	 22.1279 	 
C 	 -58.2256 	 6.36557 	 21.2665 	 
C 	 -58.9018 	 7.45996 	 21.7472 	 
H 	 -57.5119 	 4.34595 	 22.0096 	 
C 	 -57.3698 	 6.36828 	 20.131 	 
H 	 -56.4196 	 6.06803 	 20.5755 	 
H 	 -57.1916 	 7.39214 	 19.7214 	 
C 	 -57.7956 	 5.59121 	 18.9282 	 
H 	 -58.5819 	 6.1985 	 18.4627 	 
H 	 -58.2024 	 4.63817 	 19.3393 	 
C 	 -56.6714 	 5.29726 	 17.8916 	 
H 	 -56.0955 	 4.45114 	 18.1857 	 
H 	 -56.1003 	 6.22626 	 17.8774 	 
H 	 -57.0856 	 5.13562 	 16.9243 	 
H 	 -58.9577 	 12.4607 	 21.2925 	 
H 	 -58.779 	 4.64557 	 24.0542 	 
