34

S 	 -38.3623 	 14.9074 	 15.8948 	 
C 	 -38.8003 	 13.4581 	 16.7307 	 
C 	 -39.8064 	 13.6799 	 17.6429 	 
C 	 -40.1114 	 15.0663 	 17.7624 	 
C 	 -39.4147 	 15.8815 	 16.8968 	 
H 	 -40.8089 	 15.5366 	 18.4297 	 
C 	 -40.5083 	 12.5513 	 18.3895 	 
H 	 -39.6512 	 11.9902 	 18.8663 	 
H 	 -40.8497 	 11.9787 	 17.4828 	 
C 	 -41.7405 	 12.9395 	 19.2326 	 
H 	 -41.4391 	 13.3746 	 20.2006 	 
H 	 -42.3618 	 13.6136 	 18.642 	 
C 	 -42.6326 	 11.7304 	 19.5012 	 
H 	 -42.7101 	 11.2021 	 18.5198 	 
H 	 -42.1639 	 11.0203 	 20.1845 	 
H 	 -43.5882 	 12.0064 	 20.0702 	 
S 	 -40.3669 	 17.9822 	 15.5289 	 
C 	 -39.9343 	 19.5683 	 15.9956 	 
C 	 -38.8007 	 19.5492 	 16.7632 	 
C 	 -38.3494 	 18.246 	 17.1478 	 
C 	 -39.3508 	 17.3294 	 16.7615 	 
H 	 -38.2186 	 20.4712 	 16.9442 	 
C 	 -37.0169 	 17.8808 	 17.8494 	 
H 	 -36.4665 	 17.4188 	 17.0692 	 
H 	 -37.28 	 16.9602 	 18.5095 	 
C 	 -36.25 	 18.9914 	 18.6547 	 
H 	 -36.1424 	 19.9337 	 18.0849 	 
H 	 -35.1416 	 18.6816 	 18.7846 	 
C 	 -37.0336 	 19.4377 	 19.9599 	 
H 	 -37.9614 	 20.0123 	 19.6695 	 
H 	 -36.4143 	 20.1023 	 20.6042 	 
H 	 -37.3958 	 18.5405 	 20.554 	 
H 	 -38.5098 	 12.5146 	 16.2471 	 
H 	 -40.3044 	 20.5192 	 15.6719 	 
