34

S 	 -20.1812 	 -32.0489 	 -98.5375 	 
C 	 -18.7963 	 -32.3906 	 -99.6207 	 
C 	 -19.1557 	 -32.508 	 -100.942 	 
C 	 -20.591 	 -32.2512 	 -101.089 	 
C 	 -21.2521 	 -32.0505 	 -99.9119 	 
H 	 -21.1984 	 -32.3089 	 -102.02 	 
C 	 -18.2651 	 -32.5868 	 -102.112 	 
H 	 -18.6286 	 -33.4408 	 -102.767 	 
H 	 -17.2317 	 -32.7267 	 -101.864 	 
C 	 -18.2057 	 -31.2391 	 -102.931 	 
H 	 -17.6308 	 -31.4088 	 -103.776 	 
H 	 -19.1779 	 -30.9381 	 -103.29 	 
C 	 -17.736 	 -29.9127 	 -102.268 	 
H 	 -17.5428 	 -29.2382 	 -103.026 	 
H 	 -18.4717 	 -29.5077 	 -101.604 	 
H 	 -16.801 	 -30.0442 	 -101.749 	 
S 	 -23.3353 	 -33.4944 	 -98.8919 	 
C 	 -24.8977 	 -32.922 	 -99.2909 	 
C 	 -24.9891 	 -31.8984 	 -100.182 	 
C 	 -23.6669 	 -31.3195 	 -100.401 	 
C 	 -22.7328 	 -32.06 	 -99.7634 	 
H 	 -25.9078 	 -31.551 	 -100.497 	 
C 	 -23.3814 	 -30.1615 	 -101.293 	 
H 	 -23.5759 	 -30.4708 	 -102.279 	 
H 	 -22.2767 	 -30.0013 	 -101.169 	 
C 	 -24.066 	 -28.7781 	 -100.977 	 
H 	 -25.1484 	 -28.7677 	 -101.3 	 
H 	 -23.6979 	 -27.9949 	 -101.62 	 
C 	 -24.1513 	 -28.5217 	 -99.4479 	 
H 	 -23.2902 	 -28.6862 	 -98.8013 	 
H 	 -24.9128 	 -29.2163 	 -99.0112 	 
H 	 -24.5205 	 -27.5093 	 -99.1475 	 
H 	 -17.7491 	 -32.2133 	 -99.1899 	 
H 	 -25.7977 	 -33.4195 	 -98.82 	 
