34

S 	 -58.4394 	 9.7769 	 -83.9271 	 
C 	 -59.0407 	 9.78616 	 -85.5137 	 
C 	 -60.0334 	 10.7145 	 -85.7153 	 
C 	 -60.2778 	 11.5285 	 -84.5284 	 
C 	 -59.4006 	 11.2021 	 -83.4854 	 
H 	 -61.0024 	 12.2827 	 -84.4279 	 
C 	 -60.8535 	 10.8275 	 -86.9586 	 
H 	 -61.694 	 10.1584 	 -86.9692 	 
H 	 -60.3454 	 10.3531 	 -87.8239 	 
C 	 -61.3407 	 12.2602 	 -87.3736 	 
H 	 -60.4322 	 12.8126 	 -87.1797 	 
H 	 -61.5165 	 12.2217 	 -88.4308 	 
C 	 -62.5676 	 12.8303 	 -86.794 	 
H 	 -62.7685 	 13.8393 	 -87.1678 	 
H 	 -63.3852 	 12.3543 	 -87.2706 	 
H 	 -62.7338 	 12.8291 	 -85.7499 	 
S 	 -59.1588 	 13.677 	 -82.4827 	 
C 	 -58.9193 	 13.984 	 -80.761 	 
C 	 -58.7587 	 12.7552 	 -80.0935 	 
C 	 -58.9599 	 11.5996 	 -80.9589 	 
C 	 -59.1458 	 11.9844 	 -82.2671 	 
H 	 -58.5769 	 12.7188 	 -79.0065 	 
C 	 -58.9331 	 10.2259 	 -80.3157 	 
H 	 -58.8994 	 10.4071 	 -79.2213 	 
H 	 -57.9512 	 9.91644 	 -80.819 	 
C 	 -60.0779 	 9.17763 	 -80.5696 	 
H 	 -59.9534 	 8.24883 	 -79.9173 	 
H 	 -59.9633 	 8.91295 	 -81.6235 	 
C 	 -61.4519 	 9.81223 	 -80.2933 	 
H 	 -62.1725 	 9.02804 	 -80.5387 	 
H 	 -61.6452 	 10.7048 	 -80.8565 	 
H 	 -61.4164 	 10.0667 	 -79.3005 	 
H 	 -58.8327 	 9.07707 	 -86.3081 	 
H 	 -58.6943 	 14.9666 	 -80.2543 	 
