34

S 	 -54.6854 	 5.99032 	 -100.16 	 
C 	 -55.7995 	 6.08401 	 -101.523 	 
C 	 -57.0755 	 6.46395 	 -101.119 	 
C 	 -57.0607 	 6.75293 	 -99.7523 	 
C 	 -55.8849 	 6.5059 	 -99.0828 	 
H 	 -57.9141 	 7.11653 	 -99.2806 	 
C 	 -58.1712 	 6.89356 	 -102.083 	 
H 	 -59.1634 	 6.84352 	 -101.635 	 
H 	 -58.1958 	 6.20923 	 -102.997 	 
C 	 -57.7272 	 8.2459 	 -102.517 	 
H 	 -57.3752 	 9.0225 	 -101.899 	 
H 	 -56.8912 	 8.06535 	 -103.263 	 
C 	 -58.8065 	 8.88172 	 -103.395 	 
H 	 -58.6307 	 9.86749 	 -103.748 	 
H 	 -59.1576 	 8.24922 	 -104.272 	 
H 	 -59.673 	 9.06016 	 -102.737 	 
S 	 -54.5005 	 5.56991 	 -96.8796 	 
C 	 -54.6894 	 6.23976 	 -95.2911 	 
C 	 -55.6177 	 7.26824 	 -95.3754 	 
C 	 -56.2316 	 7.52466 	 -96.6342 	 
C 	 -55.674 	 6.68368 	 -97.6395 	 
H 	 -55.7904 	 7.86885 	 -94.5237 	 
C 	 -57.2281 	 8.67209 	 -96.8528 	 
H 	 -58.1277 	 8.46006 	 -96.2536 	 
H 	 -57.5759 	 8.64948 	 -97.8456 	 
C 	 -56.7353 	 10.0979 	 -96.4951 	 
H 	 -55.7907 	 10.4889 	 -96.8632 	 
H 	 -56.5301 	 10.0678 	 -95.4459 	 
C 	 -57.8935 	 11.0028 	 -96.8922 	 
H 	 -58.27 	 10.982 	 -97.8951 	 
H 	 -57.7683 	 12.0731 	 -96.8521 	 
H 	 -58.7923 	 10.6823 	 -96.3682 	 
H 	 -55.5782 	 5.97285 	 -102.614 	 
H 	 -54.1794 	 5.81259 	 -94.446 	 
