34

S 	 -81.9999 	 -8.16929 	 -57.4243 	 
C 	 -83.0427 	 -9.53484 	 -57.1565 	 
C 	 -84.2984 	 -9.16386 	 -57.6325 	 
C 	 -84.4431 	 -7.81248 	 -58.0657 	 
C 	 -83.213 	 -7.12765 	 -58.1034 	 
H 	 -85.28 	 -7.32043 	 -58.5081 	 
C 	 -85.53 	 -10.0758 	 -57.7065 	 
H 	 -86.4172 	 -9.46576 	 -58.0083 	 
H 	 -85.7125 	 -10.7085 	 -56.8318 	 
C 	 -85.497 	 -11.1754 	 -58.7414 	 
H 	 -85.2122 	 -10.6821 	 -59.6558 	 
H 	 -84.6352 	 -11.8673 	 -58.4404 	 
C 	 -86.7838 	 -11.9885 	 -58.8096 	 
H 	 -86.6517 	 -12.7255 	 -59.5839 	 
H 	 -87.0038 	 -12.3856 	 -57.7792 	 
H 	 -87.7082 	 -11.4741 	 -59.0385 	 
S 	 -82.9002 	 -4.51749 	 -57.4953 	 
C 	 -82.5716 	 -3.32659 	 -58.6965 	 
C 	 -82.5997 	 -3.87657 	 -59.9997 	 
C 	 -82.9107 	 -5.31772 	 -59.9827 	 
C 	 -82.9492 	 -5.82166 	 -58.6638 	 
H 	 -82.3644 	 -3.21911 	 -60.8207 	 
C 	 -83.1203 	 -6.12848 	 -61.3284 	 
H 	 -83.2278 	 -5.46602 	 -62.124 	 
H 	 -84.1173 	 -6.60891 	 -61.2485 	 
C 	 -82.0224 	 -7.14545 	 -61.6763 	 
H 	 -81.8775 	 -7.68705 	 -60.7876 	 
H 	 -81.0964 	 -6.60544 	 -61.7584 	 
C 	 -82.3732 	 -7.90144 	 -62.9279 	 
H 	 -81.6897 	 -8.74153 	 -63.1809 	 
H 	 -82.5571 	 -7.29702 	 -63.807 	 
H 	 -83.2952 	 -8.46822 	 -62.8852 	 
H 	 -82.7459 	 -10.511 	 -56.6851 	 
H 	 -82.3085 	 -2.27163 	 -58.5395 	 
