34

S 	 -42.2175 	 12.4613 	 21.4574 	 
C 	 -43.6094 	 13.5872 	 21.4048 	 
C 	 -43.8017 	 14.0815 	 20.1633 	 
C 	 -42.988 	 13.4202 	 19.138 	 
C 	 -42.0557 	 12.4698 	 19.6807 	 
H 	 -43.0285 	 13.3926 	 18.0297 	 
C 	 -44.8971 	 15.0753 	 19.7114 	 
H 	 -44.305 	 15.9005 	 19.3306 	 
H 	 -45.2888 	 15.5444 	 20.5176 	 
C 	 -45.8702 	 14.6464 	 18.671 	 
H 	 -45.2793 	 14.3036 	 17.8756 	 
H 	 -46.5819 	 13.9737 	 19.0219 	 
C 	 -46.667 	 15.879 	 18.2901 	 
H 	 -47.237 	 16.1992 	 19.1627 	 
H 	 -46.106 	 16.7363 	 17.9769 	 
H 	 -47.2477 	 15.6294 	 17.4291 	 
S 	 -41.0768 	 9.9741 	 19.3878 	 
C 	 -39.8048 	 9.63992 	 18.1891 	 
C 	 -39.5707 	 10.7423 	 17.4042 	 
C 	 -40.2881 	 11.9129 	 17.8469 	 
C 	 -41.1773 	 11.6564 	 18.9064 	 
H 	 -39.0454 	 10.748 	 16.4773 	 
C 	 -40.1452 	 13.2003 	 17.0785 	 
H 	 -39.169 	 13.7494 	 17.1958 	 
H 	 -40.7954 	 13.8356 	 17.6144 	 
C 	 -40.5552 	 13.2717 	 15.6112 	 
H 	 -41.5621 	 12.9549 	 15.4799 	 
H 	 -40.0172 	 12.5221 	 15.0356 	 
C 	 -40.3113 	 14.6962 	 14.9957 	 
H 	 -40.6256 	 15.5328 	 15.6788 	 
H 	 -40.7915 	 14.8347 	 14.0758 	 
H 	 -39.2758 	 14.6834 	 14.6503 	 
H 	 -44.3613 	 13.9471 	 22.1008 	 
H 	 -39.5217 	 8.6978 	 17.7282 	 
