34

S 	 -107.006 	 49.7019 	 -97.0887 	 
C 	 -106.399 	 50.5946 	 -95.7208 	 
C 	 -106.958 	 51.8459 	 -95.6871 	 
C 	 -107.932 	 52.0764 	 -96.7264 	 
C 	 -108.096 	 50.993 	 -97.6312 	 
H 	 -108.63 	 52.9238 	 -96.7379 	 
C 	 -106.854 	 52.7956 	 -94.5334 	 
H 	 -106.421 	 53.7231 	 -94.9764 	 
H 	 -106.098 	 52.2314 	 -93.912 	 
C 	 -108.145 	 53.2333 	 -93.7624 	 
H 	 -107.896 	 53.6288 	 -92.846 	 
H 	 -108.612 	 53.9972 	 -94.3549 	 
C 	 -109.087 	 52.0677 	 -93.4697 	 
H 	 -109.765 	 51.8359 	 -94.303 	 
H 	 -108.69 	 51.1094 	 -93.1784 	 
H 	 -109.722 	 52.4153 	 -92.6921 	 
S 	 -109.101 	 49.3394 	 -99.6164 	 
C 	 -110.499 	 49.7862 	 -100.419 	 
C 	 -110.75 	 51.1004 	 -100.342 	 
C 	 -109.818 	 51.7778 	 -99.5014 	 
C 	 -108.938 	 50.9092 	 -98.8308 	 
H 	 -111.695 	 51.4792 	 -100.766 	 
C 	 -109.968 	 53.275 	 -99.3315 	 
H 	 -109.22 	 53.7132 	 -98.7042 	 
H 	 -110.796 	 53.4381 	 -98.6542 	 
C 	 -110.112 	 54.1451 	 -100.602 	 
H 	 -111.108 	 53.9266 	 -101.122 	 
H 	 -109.425 	 53.8849 	 -101.392 	 
C 	 -110.198 	 55.6175 	 -100.313 	 
H 	 -109.197 	 56.1441 	 -100.124 	 
H 	 -110.789 	 55.9743 	 -99.5021 	 
H 	 -110.61 	 56.1797 	 -101.162 	 
H 	 -105.732 	 50.2058 	 -94.9789 	 
H 	 -111.161 	 49.0742 	 -100.951 	 
