34

S 	 -31.8169 	 18.3667 	 4.14028 	 
C 	 -32.5362 	 16.8639 	 3.76507 	 
C 	 -32.2886 	 15.9168 	 4.70367 	 
C 	 -31.8416 	 16.4842 	 5.96252 	 
C 	 -31.5457 	 17.8363 	 5.81281 	 
H 	 -31.6248 	 15.9598 	 6.89793 	 
C 	 -32.528 	 14.4137 	 4.62045 	 
H 	 -33.2437 	 14.0696 	 3.9231 	 
H 	 -32.9872 	 14.1952 	 5.60467 	 
C 	 -31.2727 	 13.5074 	 4.35026 	 
H 	 -30.8701 	 13.7389 	 3.38731 	 
H 	 -30.6677 	 13.6663 	 5.25682 	 
C 	 -31.5948 	 12.0381 	 4.38033 	 
H 	 -32.3512 	 11.8303 	 5.16318 	 
H 	 -31.9937 	 11.7531 	 3.42391 	 
H 	 -30.6561 	 11.4734 	 4.51204 	 
S 	 -31.8656 	 20.1997 	 7.30626 	 
C 	 -30.687 	 20.4867 	 8.58052 	 
C 	 -29.7463 	 19.4871 	 8.59505 	 
C 	 -29.9384 	 18.494 	 7.59689 	 
C 	 -31.03 	 18.7468 	 6.78558 	 
H 	 -29.0821 	 19.5521 	 9.40697 	 
C 	 -28.9588 	 17.3819 	 7.35385 	 
H 	 -27.9956 	 17.8747 	 6.97316 	 
H 	 -29.2387 	 16.6223 	 6.65467 	 
C 	 -28.5626 	 16.5639 	 8.54666 	 
H 	 -29.3716 	 16.1488 	 9.07178 	 
H 	 -27.9738 	 17.1912 	 9.25098 	 
C 	 -27.4215 	 15.4665 	 8.4451 	 
H 	 -27.2569 	 14.9323 	 9.41597 	 
H 	 -26.4743 	 15.95 	 8.23225 	 
H 	 -27.5702 	 14.8135 	 7.60677 	 
H 	 -32.8111 	 16.6351 	 2.77421 	 
H 	 -30.6652 	 21.3231 	 9.19788 	 
