34

S 	 -42.3684 	 -6.45771 	 8.39952 	 
C 	 -40.7735 	 -6.48056 	 7.78988 	 
C 	 -40.353 	 -5.161 	 7.60865 	 
C 	 -41.2731 	 -4.18074 	 8.21896 	 
C 	 -42.4008 	 -4.75788 	 8.73131 	 
H 	 -41.1701 	 -3.06373 	 8.16292 	 
C 	 -39.2429 	 -4.64518 	 6.7013 	 
H 	 -38.3787 	 -5.31637 	 6.79791 	 
H 	 -38.8103 	 -3.69767 	 7.09063 	 
C 	 -39.6416 	 -4.68946 	 5.21089 	 
H 	 -40.0547 	 -5.67135 	 4.82826 	 
H 	 -40.4825 	 -4.01604 	 4.96003 	 
C 	 -38.4592 	 -4.21028 	 4.37241 	 
H 	 -38.758 	 -4.04446 	 3.35371 	 
H 	 -37.9537 	 -3.32139 	 4.68855 	 
H 	 -37.7817 	 -4.98833 	 4.07884 	 
S 	 -44.9837 	 -4.0353 	 8.20336 	 
C 	 -45.9829 	 -3.33836 	 9.49956 	 
C 	 -45.1536 	 -2.83493 	 10.471 	 
C 	 -43.8478 	 -3.33763 	 10.377 	 
C 	 -43.6317 	 -4.13376 	 9.25863 	 
H 	 -45.5314 	 -2.30841 	 11.2975 	 
C 	 -42.7607 	 -2.97808 	 11.3152 	 
H 	 -41.9904 	 -3.76954 	 11.4627 	 
H 	 -43.2363 	 -2.94995 	 12.2977 	 
C 	 -41.8994 	 -1.7182 	 11.0103 	 
H 	 -42.5322 	 -0.863469 	 11.1661 	 
H 	 -41.7093 	 -1.77101 	 9.9827 	 
C 	 -40.6048 	 -1.53188 	 11.8807 	 
H 	 -40.9319 	 -0.931102 	 12.7932 	 
H 	 -39.9369 	 -0.917272 	 11.3302 	 
H 	 -40.1257 	 -2.44902 	 12.2609 	 
H 	 -40.2036 	 -7.26992 	 7.48691 	 
H 	 -47.0168 	 -3.07781 	 9.36088 	 
