34

S 	 -129.833 	 66.5429 	 -56.5616 	 
C 	 -128.261 	 67.1236 	 -56.1609 	 
C 	 -127.573 	 67.6674 	 -57.2656 	 
C 	 -128.382 	 67.5931 	 -58.4495 	 
C 	 -129.673 	 67.0856 	 -58.2263 	 
H 	 -128.035 	 67.8598 	 -59.4413 	 
C 	 -126.171 	 68.164 	 -57.2561 	 
H 	 -125.709 	 67.8828 	 -58.1251 	 
H 	 -125.564 	 67.717 	 -56.4674 	 
C 	 -126.041 	 69.7037 	 -57.1647 	 
H 	 -126.74 	 70.2091 	 -57.885 	 
H 	 -126.333 	 70.1622 	 -56.2103 	 
C 	 -124.614 	 70.1155 	 -57.5341 	 
H 	 -124.413 	 69.5752 	 -58.5017 	 
H 	 -124.518 	 71.1543 	 -57.802 	 
H 	 -123.8 	 69.7466 	 -56.8539 	 
S 	 -132.462 	 67.615 	 -58.4869 	 
C 	 -133.383 	 66.8504 	 -59.7832 	 
C 	 -132.536 	 66.1914 	 -60.598 	 
C 	 -131.162 	 66.1832 	 -60.157 	 
C 	 -130.903 	 66.9752 	 -59.0534 	 
H 	 -132.945 	 65.6307 	 -61.4205 	 
C 	 -130.049 	 65.4388 	 -60.837 	 
H 	 -129.114 	 66.0039 	 -60.7624 	 
H 	 -130.21 	 65.4099 	 -61.9332 	 
C 	 -129.786 	 63.9987 	 -60.2564 	 
H 	 -130.549 	 63.2592 	 -60.3718 	 
H 	 -129.736 	 64.1777 	 -59.1931 	 
C 	 -128.448 	 63.2992 	 -60.6642 	 
H 	 -127.511 	 63.9111 	 -60.4865 	 
H 	 -128.365 	 63.1217 	 -61.7717 	 
H 	 -128.474 	 62.3738 	 -60.0934 	 
H 	 -127.856 	 67.0421 	 -55.1569 	 
H 	 -134.444 	 67.0443 	 -59.997 	 
