34

S 	 46.8495 	 -33.3659 	 -121.035 	 
C 	 47.8782 	 -33.3376 	 -122.521 	 
C 	 47.209 	 -32.6057 	 -123.5 	 
C 	 45.9008 	 -32.1917 	 -123.109 	 
C 	 45.4907 	 -32.5847 	 -121.871 	 
H 	 45.2542 	 -31.709 	 -123.75 	 
C 	 47.9135 	 -31.9284 	 -124.699 	 
H 	 48.9571 	 -31.5816 	 -124.444 	 
H 	 47.3598 	 -30.9923 	 -124.857 	 
C 	 48.0293 	 -32.6771 	 -126.093 	 
H 	 48.3227 	 -31.9421 	 -126.83 	 
H 	 48.8546 	 -33.3755 	 -126.07 	 
C 	 46.7311 	 -33.5404 	 -126.386 	 
H 	 46.9315 	 -34.4005 	 -127.075 	 
H 	 46.2799 	 -33.869 	 -125.421 	 
H 	 45.9486 	 -32.9298 	 -126.963 	 
S 	 44.408 	 -31.6516 	 -119.632 	 
C 	 42.8032 	 -31.3813 	 -119.488 	 
C 	 42.1741 	 -31.6775 	 -120.719 	 
C 	 42.9362 	 -32.3826 	 -121.65 	 
C 	 44.2574 	 -32.3014 	 -121.236 	 
H 	 41.1732 	 -31.4143 	 -120.867 	 
C 	 42.3418 	 -32.858 	 -122.936 	 
H 	 41.8702 	 -33.8057 	 -122.784 	 
H 	 43.1261 	 -33.053 	 -123.622 	 
C 	 41.3661 	 -31.9358 	 -123.677 	 
H 	 40.538 	 -31.8054 	 -122.945 	 
H 	 40.9472 	 -32.3985 	 -124.571 	 
C 	 41.8955 	 -30.5994 	 -124.167 	 
H 	 41.219 	 -29.9328 	 -124.56 	 
H 	 42.7511 	 -30.7224 	 -124.883 	 
H 	 42.2873 	 -29.8665 	 -123.394 	 
H 	 48.9729 	 -33.5344 	 -122.534 	 
H 	 42.2545 	 -30.7828 	 -118.787 	 
