34

S 	 -72.5319 	 -0.340135 	 13.5417 	 
C 	 -73.1452 	 1.15477 	 12.9124 	 
C 	 -74.0176 	 1.74871 	 13.7894 	 
C 	 -74.3256 	 0.953724 	 14.9029 	 
C 	 -73.7268 	 -0.280418 	 14.8805 	 
H 	 -74.9259 	 1.24237 	 15.7798 	 
C 	 -74.5664 	 3.1302 	 13.5966 	 
H 	 -73.8742 	 3.60129 	 12.9264 	 
H 	 -74.3381 	 3.71934 	 14.4607 	 
C 	 -76.0104 	 3.43176 	 13.1481 	 
H 	 -76.0741 	 4.49294 	 12.9645 	 
H 	 -76.1794 	 2.7781 	 12.273 	 
C 	 -77.0411 	 3.14885 	 14.2736 	 
H 	 -76.9637 	 2.16067 	 14.7321 	 
H 	 -76.833 	 3.73461 	 15.083 	 
H 	 -78.026 	 3.32503 	 13.8477 	 
S 	 -74.9938 	 -2.51175 	 16.0475 	 
C 	 -74.3232 	 -3.18997 	 17.4715 	 
C 	 -73.3462 	 -2.418 	 17.9998 	 
C 	 -72.9377 	 -1.35912 	 17.0947 	 
C 	 -73.7462 	 -1.26482 	 15.9514 	 
H 	 -72.916 	 -2.48766 	 19.0367 	 
C 	 -71.7589 	 -0.4609 	 17.5008 	 
H 	 -71.9519 	 -0.203014 	 18.5522 	 
H 	 -71.774 	 0.42539 	 16.919 	 
C 	 -70.3371 	 -1.06467 	 17.5419 	 
H 	 -70.2381 	 -1.89858 	 16.7862 	 
H 	 -70.1079 	 -1.54551 	 18.474 	 
C 	 -69.1367 	 -0.102969 	 17.2354 	 
H 	 -69.1148 	 0.700134 	 18.0085 	 
H 	 -69.182 	 0.346676 	 16.2692 	 
H 	 -68.1138 	 -0.557367 	 17.2533 	 
H 	 -72.8247 	 1.58833 	 11.9588 	 
H 	 -74.761 	 -4.0082 	 17.9732 	 
