34

S 	 -95.2395 	 5.85312 	 -1.67047 	 
C 	 -96.4474 	 6.00871 	 -2.92436 	 
C 	 -95.809 	 5.93 	 -4.14877 	 
C 	 -94.3961 	 5.78382 	 -4.05729 	 
C 	 -93.8862 	 5.79853 	 -2.76889 	 
H 	 -93.7353 	 5.64549 	 -4.93273 	 
C 	 -96.52 	 5.91327 	 -5.50547 	 
H 	 -97.3738 	 5.22381 	 -5.46163 	 
H 	 -95.8291 	 5.38818 	 -6.10362 	 
C 	 -96.9835 	 7.26295 	 -6.16048 	 
H 	 -97.7292 	 7.5598 	 -5.52793 	 
H 	 -96.1785 	 7.99991 	 -6.22728 	 
C 	 -97.4261 	 7.10312 	 -7.61136 	 
H 	 -96.5398 	 7.1153 	 -8.29756 	 
H 	 -97.8866 	 6.1146 	 -7.76906 	 
H 	 -98.1293 	 7.83986 	 -7.88539 	 
S 	 -92.0659 	 4.80923 	 -0.880396 	 
C 	 -90.4559 	 5.3799 	 -0.889182 	 
C 	 -90.142 	 6.01176 	 -2.11252 	 
C 	 -91.3913 	 6.30969 	 -2.83357 	 
C 	 -92.5081 	 5.76693 	 -2.29047 	 
H 	 -89.097 	 6.15338 	 -2.49383 	 
C 	 -91.3259 	 6.87307 	 -4.25276 	 
H 	 -92.2872 	 7.16202 	 -4.71097 	 
H 	 -90.9601 	 6.04646 	 -4.94182 	 
C 	 -90.4518 	 8.04524 	 -4.50515 	 
H 	 -89.4689 	 7.75199 	 -4.10809 	 
H 	 -90.7235 	 8.87913 	 -3.8072 	 
C 	 -90.5022 	 8.57709 	 -5.9181 	 
H 	 -91.4082 	 8.87359 	 -6.43425 	 
H 	 -89.9011 	 7.88231 	 -6.49568 	 
H 	 -89.8864 	 9.48465 	 -5.91406 	 
H 	 -97.5086 	 6.22046 	 -2.87925 	 
H 	 -89.7258 	 5.24035 	 -0.0891638 	 
