34

S 	 -54.0082 	 11.3008 	 -100.391 	 
C 	 -52.2986 	 11.0185 	 -100.49 	 
C 	 -51.5334 	 12.0143 	 -99.9253 	 
C 	 -52.3513 	 13.0205 	 -99.3383 	 
C 	 -53.6965 	 12.7619 	 -99.4548 	 
H 	 -52.0414 	 13.8777 	 -98.7957 	 
C 	 -50.064 	 12.0849 	 -99.938 	 
H 	 -49.7124 	 13.0916 	 -99.9491 	 
H 	 -49.6352 	 11.642 	 -100.849 	 
C 	 -49.33 	 11.4774 	 -98.7036 	 
H 	 -49.5683 	 10.4034 	 -98.5409 	 
H 	 -48.2644 	 11.5334 	 -98.9003 	 
C 	 -49.7167 	 12.2391 	 -97.3843 	 
H 	 -50.7476 	 12.1842 	 -97.1588 	 
H 	 -48.95 	 12.0407 	 -96.5528 	 
H 	 -49.6026 	 13.3207 	 -97.5114 	 
S 	 -55.0154 	 13.6311 	 -97.2939 	 
C 	 -56.5984 	 14.342 	 -97.409 	 
C 	 -56.9338 	 14.478 	 -98.7196 	 
C 	 -55.9383 	 13.9908 	 -99.6253 	 
C 	 -54.7785 	 13.5401 	 -99.0268 	 
H 	 -57.9824 	 14.8373 	 -98.8911 	 
C 	 -56.2467 	 13.8518 	 -101.094 	 
H 	 -55.3486 	 13.8383 	 -101.716 	 
H 	 -56.6951 	 14.8203 	 -101.355 	 
C 	 -57.0494 	 12.5847 	 -101.499 	 
H 	 -57.9317 	 12.6262 	 -100.923 	 
H 	 -56.5577 	 11.5698 	 -101.273 	 
C 	 -57.5161 	 12.6592 	 -102.896 	 
H 	 -56.6447 	 12.7459 	 -103.57 	 
H 	 -58.041 	 13.563 	 -103.005 	 
H 	 -58.1556 	 11.8644 	 -103.227 	 
H 	 -51.7815 	 10.2355 	 -101.077 	 
H 	 -57.3335 	 14.4632 	 -96.613 	 
