34

S 	 -107.746 	 48.0967 	 -97.2248 	 
C 	 -106.153 	 48.5133 	 -96.5775 	 
C 	 -105.77 	 49.8345 	 -96.9238 	 
C 	 -106.788 	 50.5093 	 -97.6903 	 
C 	 -107.872 	 49.6647 	 -98.0061 	 
H 	 -106.835 	 51.5642 	 -98.0505 	 
C 	 -104.565 	 50.5691 	 -96.4632 	 
H 	 -104.444 	 51.2053 	 -97.3169 	 
H 	 -103.668 	 49.9234 	 -96.5599 	 
C 	 -104.698 	 51.2351 	 -95.0996 	 
H 	 -103.857 	 51.9043 	 -95.0575 	 
H 	 -105.672 	 51.7957 	 -95.0181 	 
C 	 -104.779 	 50.1507 	 -93.9823 	 
H 	 -104.203 	 49.3133 	 -94.2834 	 
H 	 -104.342 	 50.5063 	 -93.0574 	 
H 	 -105.837 	 49.8066 	 -93.765 	 
S 	 -110.653 	 49.7866 	 -97.7349 	 
C 	 -111.611 	 50.4477 	 -99.0418 	 
C 	 -110.794 	 51.0498 	 -99.9902 	 
C 	 -109.412 	 50.8087 	 -99.7738 	 
C 	 -109.135 	 50.0169 	 -98.6372 	 
H 	 -111.146 	 51.5868 	 -100.852 	 
C 	 -108.405 	 51.4088 	 -100.766 	 
H 	 -108.624 	 50.9744 	 -101.72 	 
H 	 -107.356 	 51.1056 	 -100.519 	 
C 	 -108.388 	 52.963 	 -100.991 	 
H 	 -108.331 	 53.6002 	 -100.14 	 
H 	 -109.41 	 53.272 	 -101.274 	 
C 	 -107.346 	 53.4926 	 -101.988 	 
H 	 -107.782 	 53.344 	 -102.963 	 
H 	 -106.361 	 53.0031 	 -101.888 	 
H 	 -107.049 	 54.552 	 -101.892 	 
H 	 -105.659 	 47.784 	 -95.9149 	 
H 	 -112.758 	 50.4274 	 -99.0883 	 
