34

S 	 -36.6345 	 6.18843 	 -5.09112 	 
C 	 -36.965 	 4.46786 	 -5.42397 	 
C 	 -36.3164 	 3.70167 	 -4.49284 	 
C 	 -35.6429 	 4.45539 	 -3.4844 	 
C 	 -35.6934 	 5.79874 	 -3.6762 	 
H 	 -35.3898 	 3.99989 	 -2.55654 	 
C 	 -36.3923 	 2.17563 	 -4.52348 	 
H 	 -37.3254 	 1.84598 	 -4.9863 	 
H 	 -36.5513 	 1.9497 	 -3.44632 	 
C 	 -35.0521 	 1.48361 	 -4.93959 	 
H 	 -34.8701 	 1.86899 	 -5.94359 	 
H 	 -34.1809 	 1.76995 	 -4.27378 	 
C 	 -35.1967 	 -0.00519586 	 -5.0762 	 
H 	 -35.8991 	 -0.326036 	 -5.84059 	 
H 	 -34.263 	 -0.415162 	 -5.47545 	 
H 	 -35.3342 	 -0.467103 	 -4.07594 	 
S 	 -36.4812 	 7.77674 	 -2.13095 	 
C 	 -35.3633 	 8.40444 	 -0.986876 	 
C 	 -34.084 	 7.97968 	 -1.16226 	 
C 	 -34.0816 	 6.83976 	 -2.02437 	 
C 	 -35.1824 	 6.79112 	 -2.7698 	 
H 	 -33.4581 	 8.23943 	 -0.38339 	 
C 	 -32.7793 	 6.06615 	 -2.35141 	 
H 	 -32.9754 	 5.41273 	 -3.15479 	 
H 	 -32.6199 	 5.38405 	 -1.52083 	 
C 	 -31.499 	 6.88663 	 -2.6438 	 
H 	 -30.6155 	 6.30063 	 -2.68788 	 
H 	 -31.2673 	 7.47997 	 -1.71741 	 
C 	 -31.4802 	 7.78826 	 -3.91211 	 
H 	 -31.4026 	 7.11092 	 -4.82309 	 
H 	 -30.7491 	 8.49925 	 -3.79549 	 
H 	 -32.4593 	 8.35473 	 -3.98284 	 
H 	 -37.5381 	 3.99107 	 -6.27292 	 
H 	 -35.5263 	 9.20702 	 -0.285751 	 
