34

S 	 -53.4525 	 19.4035 	 -94.6975 	 
C 	 -52.0254 	 20.1246 	 -94.0055 	 
C 	 -51.3023 	 20.8672 	 -94.9744 	 
C 	 -51.8595 	 20.7975 	 -96.2756 	 
C 	 -53.132 	 20.1946 	 -96.2948 	 
H 	 -51.4886 	 21.3879 	 -97.2022 	 
C 	 -50.0001 	 21.6399 	 -94.7476 	 
H 	 -49.981 	 21.9612 	 -93.711 	 
H 	 -50.0668 	 22.5256 	 -95.4195 	 
C 	 -48.6435 	 20.9549 	 -95.1154 	 
H 	 -48.6174 	 20.5692 	 -96.1365 	 
H 	 -47.8607 	 21.6823 	 -95.1242 	 
C 	 -48.2426 	 19.8383 	 -94.1784 	 
H 	 -47.1714 	 19.6819 	 -94.3264 	 
H 	 -48.4764 	 19.9458 	 -93.1811 	 
H 	 -48.7766 	 18.9448 	 -94.4142 	 
S 	 -55.446 	 21.2554 	 -97.4542 	 
C 	 -55.89 	 20.667 	 -99.0589 	 
C 	 -54.9748 	 19.8201 	 -99.525 	 
C 	 -53.8479 	 19.6235 	 -98.6844 	 
C 	 -54.0445 	 20.1807 	 -97.4278 	 
H 	 -54.9866 	 19.4959 	 -100.563 	 
C 	 -52.7247 	 18.5957 	 -99.0315 	 
H 	 -53.2264 	 17.6874 	 -99.3792 	 
H 	 -52.1084 	 18.3174 	 -98.1905 	 
C 	 -51.6634 	 19.1161 	 -100.083 	 
H 	 -51.3595 	 20.1199 	 -99.7995 	 
H 	 -52.2077 	 19.2471 	 -101.015 	 
C 	 -50.4212 	 18.2602 	 -100.282 	 
H 	 -50.791 	 17.2732 	 -100.376 	 
H 	 -49.7928 	 18.2147 	 -99.4329 	 
H 	 -49.8595 	 18.637 	 -101.128 	 
H 	 -51.7911 	 20.1458 	 -92.9217 	 
H 	 -56.7078 	 20.9561 	 -99.6886 	 
