34

S 	 -127.663 	 13.8329 	 -9.94938 	 
C 	 -126.012 	 14.3192 	 -9.96513 	 
C 	 -125.154 	 13.3937 	 -10.6046 	 
C 	 -125.853 	 12.2308 	 -10.982 	 
C 	 -127.192 	 12.3793 	 -10.83 	 
H 	 -125.462 	 11.3252 	 -11.5041 	 
C 	 -123.679 	 13.5941 	 -10.9128 	 
H 	 -123.64 	 14.4786 	 -11.4041 	 
H 	 -123.481 	 12.7632 	 -11.5777 	 
C 	 -122.786 	 13.5466 	 -9.64244 	 
H 	 -123.04 	 14.1354 	 -8.82171 	 
H 	 -122.659 	 12.507 	 -9.36973 	 
C 	 -121.425 	 14.1958 	 -10.0003 	 
H 	 -121.447 	 15.203 	 -10.2936 	 
H 	 -120.775 	 14.1736 	 -9.14526 	 
H 	 -120.895 	 13.6606 	 -10.7577 	 
S 	 -129.503 	 12.2454 	 -12.3091 	 
C 	 -130.152 	 10.7318 	 -12.6855 	 
C 	 -129.423 	 9.6915 	 -12.0884 	 
C 	 -128.287 	 10.0871 	 -11.3474 	 
C 	 -128.209 	 11.4821 	 -11.3585 	 
H 	 -129.761 	 8.64692 	 -12.1527 	 
C 	 -127.373 	 9.03494 	 -10.7981 	 
H 	 -126.474 	 9.17924 	 -11.3589 	 
H 	 -127.769 	 8.01456 	 -11.0862 	 
C 	 -127.08 	 9.07634 	 -9.27532 	 
H 	 -127.014 	 10.0911 	 -8.90096 	 
H 	 -126.08 	 8.68073 	 -9.12827 	 
C 	 -128.194 	 8.18063 	 -8.518 	 
H 	 -128.002 	 8.1234 	 -7.48247 	 
H 	 -128.235 	 7.19122 	 -8.90425 	 
H 	 -129.181 	 8.58679 	 -8.64694 	 
H 	 -125.681 	 15.3522 	 -9.68004 	 
H 	 -131.077 	 10.6323 	 -13.3257 	 
