34

S 	 -113.978 	 58.2898 	 -90.0515 	 
C 	 -113.37 	 58.7212 	 -88.4516 	 
C 	 -112.447 	 57.7813 	 -88.0797 	 
C 	 -112.26 	 56.7336 	 -88.9815 	 
C 	 -113.04 	 56.8345 	 -90.1258 	 
H 	 -111.552 	 55.9264 	 -89.0296 	 
C 	 -111.669 	 57.8526 	 -86.7805 	 
H 	 -111.658 	 56.8965 	 -86.2673 	 
H 	 -112.046 	 58.5343 	 -86.025 	 
C 	 -110.208 	 58.1731 	 -86.9461 	 
H 	 -109.727 	 58.4397 	 -85.9711 	 
H 	 -109.719 	 57.2255 	 -87.2659 	 
C 	 -109.911 	 59.3472 	 -87.8906 	 
H 	 -110.202 	 59.1762 	 -88.9478 	 
H 	 -110.411 	 60.2181 	 -87.5471 	 
H 	 -108.82 	 59.6416 	 -87.7884 	 
S 	 -113.561 	 56.9004 	 -92.8478 	 
C 	 -113.722 	 55.3937 	 -93.7301 	 
C 	 -113.445 	 54.3162 	 -92.9655 	 
C 	 -113.159 	 54.6992 	 -91.6023 	 
C 	 -113.224 	 56.0096 	 -91.3504 	 
H 	 -113.381 	 53.2889 	 -93.4688 	 
C 	 -112.657 	 53.6379 	 -90.6567 	 
H 	 -113.105 	 53.8668 	 -89.6539 	 
H 	 -111.623 	 53.8882 	 -90.5475 	 
C 	 -112.939 	 52.1702 	 -90.9815 	 
H 	 -112.563 	 51.9913 	 -92.002 	 
H 	 -114.007 	 52.0324 	 -90.9314 	 
C 	 -112.114 	 51.2525 	 -90.0602 	 
H 	 -112.629 	 51.0973 	 -89.1138 	 
H 	 -111.132 	 51.6579 	 -90.0345 	 
H 	 -112.062 	 50.2221 	 -90.4683 	 
H 	 -113.472 	 59.6122 	 -87.8852 	 
H 	 -113.784 	 55.2915 	 -94.7939 	 
