34

S 	 -76.9164 	 8.03412 	 -111.953 	 
C 	 -78.2751 	 8.25391 	 -110.901 	 
C 	 -77.8358 	 8.41841 	 -109.579 	 
C 	 -76.4233 	 8.47881 	 -109.448 	 
C 	 -75.7968 	 8.49067 	 -110.665 	 
H 	 -75.9001 	 8.54433 	 -108.549 	 
C 	 -78.7587 	 8.64287 	 -108.378 	 
H 	 -78.4029 	 8.05874 	 -107.522 	 
H 	 -79.7682 	 8.29556 	 -108.593 	 
C 	 -78.9782 	 10.1493 	 -107.872 	 
H 	 -79.7502 	 10.1385 	 -107.122 	 
H 	 -78.1575 	 10.6861 	 -107.418 	 
C 	 -79.429 	 11.1055 	 -108.987 	 
H 	 -78.5995 	 11.3684 	 -109.636 	 
H 	 -80.3655 	 10.8578 	 -109.511 	 
H 	 -79.6034 	 12.001 	 -108.428 	 
S 	 -73.6041 	 7.6487 	 -112.121 	 
C 	 -72.0164 	 8.10397 	 -111.554 	 
C 	 -71.9985 	 9.04621 	 -110.557 	 
C 	 -73.3287 	 9.23066 	 -110.037 	 
C 	 -74.3205 	 8.62599 	 -110.84 	 
H 	 -71.0288 	 9.33762 	 -110.267 	 
C 	 -73.5403 	 9.93771 	 -108.712 	 
H 	 -72.5678 	 10.203 	 -108.316 	 
H 	 -74.0494 	 9.32789 	 -107.94 	 
C 	 -74.348 	 11.2812 	 -108.675 	 
H 	 -74.1645 	 11.6366 	 -107.624 	 
H 	 -75.4306 	 10.9887 	 -108.85 	 
C 	 -73.9622 	 12.3494 	 -109.657 	 
H 	 -73.957 	 11.9463 	 -110.637 	 
H 	 -72.9112 	 12.6572 	 -109.496 	 
H 	 -74.69 	 13.1576 	 -109.68 	 
H 	 -79.2488 	 8.34614 	 -111.235 	 
H 	 -71.1032 	 7.87015 	 -112.044 	 
