34

S 	 -148.54 	 6.45839 	 10.2714 	 
C 	 -149.319 	 7.73469 	 9.48183 	 
C 	 -149.652 	 8.79819 	 10.3078 	 
C 	 -149.021 	 8.63784 	 11.5726 	 
C 	 -148.191 	 7.5603 	 11.6625 	 
H 	 -149.043 	 9.39808 	 12.4358 	 
C 	 -150.483 	 10.021 	 9.98996 	 
H 	 -150.682 	 10.1256 	 8.93327 	 
H 	 -149.906 	 10.8616 	 10.2814 	 
C 	 -151.888 	 10.0729 	 10.6514 	 
H 	 -152.321 	 9.1257 	 10.6106 	 
H 	 -151.89 	 10.2485 	 11.6879 	 
C 	 -152.684 	 11.1773 	 9.94059 	 
H 	 -152.274 	 12.2045 	 10.0339 	 
H 	 -152.834 	 10.9525 	 8.89778 	 
H 	 -153.726 	 11.1697 	 10.3537 	 
S 	 -147.78 	 5.91954 	 13.7353 	 
C 	 -146.386 	 6.13696 	 14.7716 	 
C 	 -145.636 	 7.20128 	 14.4654 	 
C 	 -146.283 	 7.97147 	 13.4112 	 
C 	 -147.281 	 7.24895 	 12.7277 	 
H 	 -144.816 	 7.55577 	 15.0803 	 
C 	 -145.771 	 9.33816 	 12.9199 	 
H 	 -146.62 	 9.80682 	 12.4393 	 
H 	 -144.995 	 9.22947 	 12.2478 	 
C 	 -145.344 	 10.1986 	 14.0684 	 
H 	 -144.45 	 9.85436 	 14.4849 	 
H 	 -146.069 	 10.1494 	 14.8055 	 
C 	 -145.102 	 11.6939 	 13.7219 	 
H 	 -144.543 	 12.2277 	 14.4621 	 
H 	 -146.093 	 12.1188 	 13.4916 	 
H 	 -144.422 	 11.7074 	 12.8041 	 
H 	 -149.771 	 7.59843 	 8.54584 	 
H 	 -146.359 	 5.6216 	 15.6783 	 
