34

S 	 -38.2815 	 -9.62634 	 9.19653 	 
C 	 -38.2531 	 -9.54089 	 7.42919 	 
C 	 -38.1239 	 -8.18394 	 7.04445 	 
C 	 -37.8294 	 -7.30436 	 8.15752 	 
C 	 -37.8283 	 -7.95134 	 9.36276 	 
H 	 -37.7024 	 -6.20963 	 8.05227 	 
C 	 -37.9905 	 -7.71546 	 5.65368 	 
H 	 -37.3674 	 -8.45128 	 5.11196 	 
H 	 -37.5676 	 -6.75146 	 5.60995 	 
C 	 -39.3284 	 -7.74464 	 4.90593 	 
H 	 -39.0973 	 -7.61676 	 3.83418 	 
H 	 -39.6424 	 -8.84506 	 4.89138 	 
C 	 -40.486 	 -6.834 	 5.35011 	 
H 	 -40.7292 	 -7.10727 	 6.33848 	 
H 	 -40.0956 	 -5.80213 	 5.45286 	 
H 	 -41.4134 	 -7.01374 	 4.73795 	 
S 	 -36.1698 	 -8.16969 	 11.4602 	 
C 	 -36.0785 	 -6.8929 	 12.6382 	 
C 	 -37.027 	 -5.92437 	 12.4814 	 
C 	 -37.8038 	 -6.1981 	 11.308 	 
C 	 -37.4504 	 -7.40936 	 10.6491 	 
H 	 -37.0394 	 -5.1135 	 13.3049 	 
C 	 -38.9021 	 -5.27007 	 10.8321 	 
H 	 -39.5445 	 -5.12774 	 11.7109 	 
H 	 -39.5597 	 -5.63445 	 10.06 	 
C 	 -38.5452 	 -3.82918 	 10.4705 	 
H 	 -37.726 	 -3.74799 	 9.77833 	 
H 	 -38.1579 	 -3.32019 	 11.3668 	 
C 	 -39.8122 	 -2.96255 	 10.0827 	 
H 	 -39.4561 	 -2.05026 	 9.74711 	 
H 	 -40.3822 	 -2.73337 	 10.941 	 
H 	 -40.5096 	 -3.40261 	 9.38114 	 
H 	 -38.2403 	 -10.3757 	 6.76459 	 
H 	 -35.4553 	 -6.89914 	 13.4768 	 
