34

S 	 46.8408 	 -20.4141 	 -115.086 	 
C 	 47.4379 	 -21.7879 	 -115.948 	 
C 	 47.5381 	 -22.9391 	 -115.15 	 
C 	 47.0646 	 -22.6212 	 -113.778 	 
C 	 46.8471 	 -21.3142 	 -113.558 	 
H 	 47.0108 	 -23.2997 	 -112.901 	 
C 	 47.9685 	 -24.3015 	 -115.643 	 
H 	 48.7429 	 -24.638 	 -115.019 	 
H 	 48.2455 	 -24.1673 	 -116.696 	 
C 	 46.7739 	 -25.1865 	 -115.339 	 
H 	 46.5648 	 -25.0911 	 -114.311 	 
H 	 45.8565 	 -24.7912 	 -115.834 	 
C 	 46.9664 	 -26.5704 	 -115.827 	 
H 	 46.7975 	 -26.7761 	 -116.896 	 
H 	 47.9753 	 -26.981 	 -115.495 	 
H 	 46.3128 	 -27.1546 	 -115.281 	 
S 	 47.4228 	 -19.1465 	 -111.994 	 
C 	 46.4798 	 -18.8884 	 -110.567 	 
C 	 45.6678 	 -19.9757 	 -110.189 	 
C 	 45.7361 	 -20.9838 	 -111.173 	 
C 	 46.5134 	 -20.6606 	 -112.297 	 
H 	 45.1582 	 -19.9541 	 -109.241 	 
C 	 44.97 	 -22.2216 	 -111.074 	 
H 	 44.989 	 -22.9014 	 -111.953 	 
H 	 43.9171 	 -21.9754 	 -111.117 	 
C 	 45.2514 	 -23.0651 	 -109.737 	 
H 	 45.4051 	 -22.4117 	 -108.869 	 
H 	 46.1949 	 -23.7058 	 -109.842 	 
C 	 44.1951 	 -24.223 	 -109.58 	 
H 	 43.2013 	 -23.8038 	 -109.551 	 
H 	 44.295 	 -24.8926 	 -108.61 	 
H 	 44.1856 	 -24.8937 	 -110.46 	 
H 	 47.8406 	 -21.7301 	 -117.015 	 
H 	 46.4596 	 -18.0156 	 -110.117 	 
