34

S 	 -45.6961 	 10.8852 	 29.4716 	 
C 	 -46.6295 	 9.87924 	 28.4032 	 
C 	 -47.0127 	 10.6305 	 27.3117 	 
C 	 -46.5597 	 12.036 	 27.3132 	 
C 	 -45.8028 	 12.2954 	 28.4199 	 
H 	 -46.605 	 12.7542 	 26.5447 	 
C 	 -47.9816 	 10.2122 	 26.2377 	 
H 	 -47.6835 	 9.13528 	 26.0452 	 
H 	 -47.7102 	 10.8116 	 25.3945 	 
C 	 -49.4522 	 10.2442 	 26.7484 	 
H 	 -50.0336 	 9.61006 	 26.0273 	 
H 	 -49.5099 	 9.72045 	 27.6565 	 
C 	 -50.1337 	 11.5725 	 26.9391 	 
H 	 -49.6775 	 12.1022 	 27.8101 	 
H 	 -49.8279 	 12.1471 	 26.0347 	 
H 	 -51.2033 	 11.5544 	 26.8775 	 
S 	 -43.4606 	 13.5082 	 29.4769 	 
C 	 -43.4034 	 15.2494 	 29.6973 	 
C 	 -44.4552 	 15.7955 	 29.0214 	 
C 	 -45.3561 	 14.8093 	 28.4978 	 
C 	 -45.0324 	 13.5269 	 28.6766 	 
H 	 -44.5994 	 16.8584 	 29.0691 	 
C 	 -46.7739 	 15.2751 	 28.1931 	 
H 	 -47.1763 	 15.7129 	 29.088 	 
H 	 -47.343 	 14.3915 	 28.0106 	 
C 	 -46.8675 	 16.3622 	 27.1017 	 
H 	 -46.4758 	 17.2618 	 27.4599 	 
H 	 -47.8942 	 16.7474 	 26.9855 	 
C 	 -46.3249 	 15.8135 	 25.7262 	 
H 	 -45.5556 	 15.0675 	 25.8701 	 
H 	 -46.0225 	 16.6211 	 24.9877 	 
H 	 -46.9777 	 15.1357 	 25.2472 	 
H 	 -46.9406 	 8.85919 	 28.6582 	 
H 	 -42.7693 	 15.8802 	 30.3173 	 
