34

S 	 -64.57 	 10.5435 	 -20.1021 	 
C 	 -64.6571 	 10.7467 	 -18.3931 	 
C 	 -63.5897 	 10.1762 	 -17.6561 	 
C 	 -62.5841 	 9.70531 	 -18.5554 	 
C 	 -62.9219 	 9.85002 	 -19.8702 	 
H 	 -61.6795 	 9.20193 	 -18.2489 	 
C 	 -63.3538 	 10.3262 	 -16.0958 	 
H 	 -62.3224 	 10.7054 	 -15.9017 	 
H 	 -63.3905 	 9.31002 	 -15.6355 	 
C 	 -64.309 	 11.2509 	 -15.3611 	 
H 	 -64.4857 	 12.1966 	 -15.897 	 
H 	 -65.2995 	 10.8298 	 -15.2184 	 
C 	 -63.8162 	 11.5833 	 -13.9373 	 
H 	 -64.5874 	 12.1474 	 -13.3779 	 
H 	 -63.6116 	 10.7439 	 -13.2652 	 
H 	 -63.0065 	 12.2502 	 -14.1143 	 
S 	 -62.6591 	 8.14374 	 -21.8947 	 
C 	 -61.3109 	 8.21864 	 -22.9334 	 
C 	 -60.4417 	 9.21795 	 -22.6265 	 
C 	 -60.8128 	 9.97902 	 -21.4654 	 
C 	 -62.0294 	 9.53344 	 -20.9725 	 
H 	 -59.4913 	 9.19043 	 -23.1099 	 
C 	 -60.0478 	 11.1554 	 -20.9866 	 
H 	 -60.4943 	 11.79 	 -20.2371 	 
H 	 -59.9246 	 11.6784 	 -21.8823 	 
C 	 -58.6233 	 10.7787 	 -20.5603 	 
H 	 -58.2331 	 11.7738 	 -20.4819 	 
H 	 -58.0972 	 10.2887 	 -21.3621 	 
C 	 -58.5595 	 9.93904 	 -19.3012 	 
H 	 -57.5376 	 10.1196 	 -18.8679 	 
H 	 -58.7663 	 8.86237 	 -19.4702 	 
H 	 -59.312 	 10.327 	 -18.6173 	 
H 	 -65.3279 	 11.4457 	 -17.8551 	 
H 	 -60.8906 	 7.50288 	 -23.6373 	 
