34

S 	 -87.3597 	 -5.51835 	 -60.01 	 
C 	 -87.1049 	 -3.76121 	 -59.9548 	 
C 	 -85.7603 	 -3.50085 	 -59.9909 	 
C 	 -85.0089 	 -4.6903 	 -59.7673 	 
C 	 -85.6727 	 -5.91319 	 -59.7789 	 
H 	 -83.9867 	 -4.67597 	 -59.5401 	 
C 	 -85.1281 	 -2.14101 	 -60.1807 	 
H 	 -84.3061 	 -1.90926 	 -59.459 	 
H 	 -85.9713 	 -1.39025 	 -59.9813 	 
C 	 -84.661 	 -1.85621 	 -61.6487 	 
H 	 -84.314 	 -0.887757 	 -61.7314 	 
H 	 -83.837 	 -2.52344 	 -61.9245 	 
C 	 -85.8621 	 -1.8944 	 -62.6504 	 
H 	 -85.5857 	 -1.88823 	 -63.7219 	 
H 	 -86.2456 	 -2.85736 	 -62.4811 	 
H 	 -86.625 	 -1.16218 	 -62.3142 	 
S 	 -84.199 	 -7.87925 	 -61.0784 	 
C 	 -83.6853 	 -9.23809 	 -60.0821 	 
C 	 -84.0187 	 -9.07727 	 -58.7964 	 
C 	 -84.8353 	 -7.94342 	 -58.5288 	 
C 	 -85.0921 	 -7.20675 	 -59.7196 	 
H 	 -83.6226 	 -9.75131 	 -58.0822 	 
C 	 -85.2381 	 -7.5897 	 -57.1255 	 
H 	 -85.6718 	 -6.54905 	 -57.1165 	 
H 	 -84.29 	 -7.54444 	 -56.5705 	 
C 	 -86.2118 	 -8.53618 	 -56.4075 	 
H 	 -86.2039 	 -8.31978 	 -55.3201 	 
H 	 -85.9182 	 -9.58462 	 -56.6951 	 
C 	 -87.6154 	 -8.18509 	 -56.9066 	 
H 	 -87.5542 	 -7.82838 	 -58.0198 	 
H 	 -88.1126 	 -7.27643 	 -56.4912 	 
H 	 -88.353 	 -8.97579 	 -56.6912 	 
H 	 -87.914 	 -3.00426 	 -60.092 	 
H 	 -83.0361 	 -9.93545 	 -60.474 	 
