34

S 	 -105.59 	 60.249 	 -99.9285 	 
C 	 -106.941 	 59.4134 	 -100.799 	 
C 	 -106.504 	 58.1195 	 -101.219 	 
C 	 -105.087 	 58.0643 	 -101.073 	 
C 	 -104.448 	 59.0798 	 -100.473 	 
H 	 -104.513 	 57.2207 	 -101.458 	 
C 	 -107.368 	 57.0429 	 -101.737 	 
H 	 -108.398 	 57.4559 	 -101.645 	 
H 	 -107.254 	 56.1762 	 -101.099 	 
C 	 -107.141 	 56.533 	 -103.13 	 
H 	 -106.222 	 56.0228 	 -103.179 	 
H 	 -107.778 	 55.6202 	 -103.332 	 
C 	 -107.267 	 57.5576 	 -104.297 	 
H 	 -108.139 	 58.1307 	 -104.311 	 
H 	 -106.372 	 58.2144 	 -104.46 	 
H 	 -107.201 	 57.1229 	 -105.235 	 
S 	 -102.477 	 59.1271 	 -98.5246 	 
C 	 -100.824 	 59.0889 	 -99.0472 	 
C 	 -100.69 	 59.3011 	 -100.401 	 
C 	 -101.946 	 59.392 	 -101.076 	 
C 	 -103.021 	 59.1645 	 -100.222 	 
H 	 -99.6964 	 59.3488 	 -100.876 	 
C 	 -102.037 	 59.5358 	 -102.545 	 
H 	 -101.101 	 59.9845 	 -102.898 	 
H 	 -102.721 	 60.3859 	 -102.756 	 
C 	 -102.245 	 58.2902 	 -103.427 	 
H 	 -103.204 	 57.8917 	 -103.222 	 
H 	 -101.549 	 57.4652 	 -103.226 	 
C 	 -102.161 	 58.6237 	 -104.895 	 
H 	 -102.877 	 59.4546 	 -105.069 	 
H 	 -102.465 	 57.8106 	 -105.538 	 
H 	 -101.125 	 58.9615 	 -105.152 	 
H 	 -107.916 	 59.7178 	 -100.778 	 
H 	 -99.9957 	 58.8322 	 -98.4006 	 
