34

S 	 -101.381 	 -1.19514 	 -104.958 	 
C 	 -102.014 	 -2.29837 	 -106.173 	 
C 	 -101.643 	 -3.65019 	 -105.94 	 
C 	 -100.929 	 -3.7588 	 -104.713 	 
C 	 -100.79 	 -2.58225 	 -104.051 	 
H 	 -100.581 	 -4.66692 	 -104.329 	 
C 	 -101.981 	 -4.85737 	 -106.829 	 
H 	 -102.754 	 -4.46974 	 -107.444 	 
H 	 -102.472 	 -5.64983 	 -106.23 	 
C 	 -100.819 	 -5.37228 	 -107.667 	 
H 	 -100.498 	 -4.5593 	 -108.3 	 
H 	 -100.054 	 -5.64233 	 -106.951 	 
C 	 -101.188 	 -6.43906 	 -108.669 	 
H 	 -101.418 	 -7.446 	 -108.303 	 
H 	 -102 	 -6.10076 	 -109.345 	 
H 	 -100.299 	 -6.70482 	 -109.299 	 
S 	 -98.4856 	 -2.69379 	 -102.676 	 
C 	 -98.4476 	 -1.97459 	 -101.049 	 
C 	 -99.6823 	 -1.70503 	 -100.58 	 
C 	 -100.703 	 -1.74128 	 -101.622 	 
C 	 -100.204 	 -2.41263 	 -102.745 	 
H 	 -99.7873 	 -1.28477 	 -99.6037 	 
C 	 -102.119 	 -1.17127 	 -101.499 	 
H 	 -102.468 	 -0.714474 	 -102.439 	 
H 	 -102.087 	 -0.223076 	 -100.881 	 
C 	 -103.22 	 -2.07478 	 -100.841 	 
H 	 -104.058 	 -1.41397 	 -100.67 	 
H 	 -102.791 	 -2.22477 	 -99.814 	 
C 	 -103.382 	 -3.44661 	 -101.429 	 
H 	 -102.388 	 -3.86118 	 -101.54 	 
H 	 -103.683 	 -3.40153 	 -102.422 	 
H 	 -104.154 	 -4.05229 	 -100.894 	 
H 	 -102.444 	 -1.99422 	 -107.051 	 
H 	 -97.5295 	 -1.8856 	 -100.475 	 
