34

S 	 -145.55 	 12.7106 	 -7.87901 	 
C 	 -144.817 	 11.2226 	 -8.36693 	 
C 	 -145.34 	 10.7294 	 -9.56168 	 
C 	 -146.093 	 11.7526 	 -10.1986 	 
C 	 -146.415 	 12.8383 	 -9.41699 	 
H 	 -146.393 	 11.7447 	 -11.2038 	 
C 	 -144.787 	 9.44493 	 -10.1984 	 
H 	 -145.527 	 8.67836 	 -10.0258 	 
H 	 -143.924 	 9.14818 	 -9.54297 	 
C 	 -144.165 	 9.49415 	 -11.6031 	 
H 	 -143.806 	 8.4676 	 -11.7997 	 
H 	 -144.956 	 9.74561 	 -12.2872 	 
C 	 -142.994 	 10.4312 	 -11.7922 	 
H 	 -143.429 	 11.4822 	 -11.8759 	 
H 	 -142.313 	 10.2932 	 -10.9916 	 
H 	 -142.355 	 10.205 	 -12.6944 	 
S 	 -146.454 	 15.5634 	 -9.49048 	 
C 	 -147.921 	 16.4446 	 -9.92674 	 
C 	 -148.818 	 15.5091 	 -10.3941 	 
C 	 -148.432 	 14.1575 	 -10.2523 	 
C 	 -147.189 	 14.0193 	 -9.7182 	 
H 	 -149.709 	 15.8321 	 -10.7837 	 
C 	 -149.348 	 13.0381 	 -10.6668 	 
H 	 -148.807 	 12.5085 	 -11.4366 	 
H 	 -150.284 	 13.3524 	 -11.1003 	 
C 	 -149.693 	 12.1103 	 -9.49208 	 
H 	 -148.753 	 11.8777 	 -8.97989 	 
H 	 -150.175 	 11.1772 	 -9.71767 	 
C 	 -150.615 	 12.8564 	 -8.4911 	 
H 	 -151.452 	 13.2406 	 -9.07274 	 
H 	 -149.977 	 13.5569 	 -7.89711 	 
H 	 -150.993 	 12.1808 	 -7.68688 	 
H 	 -144.214 	 10.6112 	 -7.66397 	 
H 	 -148.112 	 17.5092 	 -10.0754 	 
