34

S 	 -104.04 	 61.1375 	 -97.3474 	 
C 	 -105.538 	 61.3466 	 -98.2299 	 
C 	 -105.32 	 60.8856 	 -99.4986 	 
C 	 -103.955 	 60.5309 	 -99.8127 	 
C 	 -103.102 	 60.7514 	 -98.7355 	 
H 	 -103.626 	 60.0018 	 -100.78 	 
C 	 -106.415 	 60.7635 	 -100.551 	 
H 	 -107.358 	 60.43 	 -100.121 	 
H 	 -106.337 	 59.9365 	 -101.249 	 
C 	 -106.928 	 62.1044 	 -101.184 	 
H 	 -107.29 	 62.6437 	 -100.334 	 
H 	 -106.08 	 62.725 	 -101.555 	 
C 	 -108.088 	 61.8884 	 -102.134 	 
H 	 -107.787 	 61.4938 	 -103.138 	 
H 	 -108.804 	 61.1921 	 -101.687 	 
H 	 -108.577 	 62.813 	 -102.211 	 
S 	 -100.65 	 61.5066 	 -97.6342 	 
C 	 -99.1937 	 60.6516 	 -98.0665 	 
C 	 -99.481 	 59.5506 	 -98.8608 	 
C 	 -100.838 	 59.5246 	 -99.3262 	 
C 	 -101.686 	 60.4408 	 -98.6393 	 
H 	 -98.7245 	 58.8502 	 -99.228 	 
C 	 -101.202 	 58.3865 	 -100.207 	 
H 	 -102.257 	 58.4628 	 -100.376 	 
H 	 -101.041 	 57.5568 	 -99.5555 	 
C 	 -100.532 	 58.3286 	 -101.536 	 
H 	 -99.4477 	 58.4655 	 -101.581 	 
H 	 -100.851 	 59.2543 	 -102.085 	 
C 	 -100.998 	 57.1248 	 -102.355 	 
H 	 -100.281 	 56.7275 	 -103.034 	 
H 	 -101.787 	 57.5307 	 -102.967 	 
H 	 -101.349 	 56.2221 	 -101.793 	 
H 	 -106.547 	 61.5235 	 -97.8375 	 
H 	 -98.2842 	 60.8068 	 -97.4912 	 
