34

S 	 -41.6598 	 -45.4362 	 -74.4967 	 
C 	 -43.29 	 -44.8532 	 -73.9584 	 
C 	 -43.4988 	 -43.637 	 -74.476 	 
C 	 -42.3503 	 -43.1541 	 -75.2289 	 
C 	 -41.2299 	 -43.9712 	 -75.3405 	 
H 	 -42.3197 	 -42.2183 	 -75.7857 	 
C 	 -44.7486 	 -42.8279 	 -74.3796 	 
H 	 -45.4051 	 -43.4107 	 -75.0749 	 
H 	 -44.6273 	 -41.7844 	 -74.7829 	 
C 	 -45.4706 	 -42.7278 	 -72.9995 	 
H 	 -45.8523 	 -43.6957 	 -72.6187 	 
H 	 -44.8277 	 -42.3719 	 -72.2503 	 
C 	 -46.6587 	 -41.8073 	 -73.0949 	 
H 	 -46.4381 	 -40.7904 	 -73.2709 	 
H 	 -47.471 	 -42.065 	 -73.8049 	 
H 	 -47.057 	 -41.7108 	 -72.0812 	 
S 	 -38.492 	 -44.2283 	 -75.2265 	 
C 	 -37.5269 	 -43.7472 	 -76.5976 	 
C 	 -38.3057 	 -43.1955 	 -77.5802 	 
C 	 -39.7247 	 -43.0872 	 -77.2131 	 
C 	 -39.9839 	 -43.7525 	 -76.0378 	 
H 	 -37.786 	 -42.8272 	 -78.4513 	 
C 	 -40.7569 	 -42.6637 	 -78.2566 	 
H 	 -40.1258 	 -42.0848 	 -79.0241 	 
H 	 -41.3947 	 -41.9143 	 -77.7607 	 
C 	 -41.6231 	 -43.8212 	 -78.6969 	 
H 	 -42.2297 	 -44.2093 	 -77.8178 	 
H 	 -40.9879 	 -44.6296 	 -79.0664 	 
C 	 -42.696 	 -43.4739 	 -79.6791 	 
H 	 -43.1935 	 -42.5501 	 -79.4771 	 
H 	 -43.4342 	 -44.2735 	 -79.8103 	 
H 	 -42.3181 	 -43.262 	 -80.7105 	 
H 	 -43.9801 	 -45.3744 	 -73.3003 	 
H 	 -36.4274 	 -43.821 	 -76.687 	 
