34

S 	 45.1784 	 -31.9661 	 -124.36 	 
C 	 44.1304 	 -32.7399 	 -125.518 	 
C 	 43.5791 	 -33.91 	 -124.948 	 
C 	 44.0289 	 -34.2025 	 -123.623 	 
C 	 44.8502 	 -33.2404 	 -123.112 	 
H 	 43.7098 	 -35.0655 	 -123.087 	 
C 	 42.6472 	 -34.9731 	 -125.592 	 
H 	 42.1002 	 -35.5024 	 -124.767 	 
H 	 43.3063 	 -35.761 	 -125.934 	 
C 	 41.5869 	 -34.5334 	 -126.673 	 
H 	 42.1262 	 -34.2094 	 -127.513 	 
H 	 40.9753 	 -35.4453 	 -126.871 	 
C 	 40.6267 	 -33.4952 	 -126.148 	 
H 	 41.1252 	 -32.761 	 -125.596 	 
H 	 40.202 	 -33.0035 	 -127.034 	 
H 	 39.8033 	 -33.8968 	 -125.479 	 
S 	 47.2181 	 -32.9865 	 -121.814 	 
C 	 47.2846 	 -33.2244 	 -120.073 	 
C 	 46.0366 	 -33.3621 	 -119.53 	 
C 	 44.9756 	 -33.4583 	 -120.535 	 
C 	 45.4819 	 -33.2403 	 -121.822 	 
H 	 45.8882 	 -33.5259 	 -118.434 	 
C 	 43.5224 	 -33.7658 	 -120.217 	 
H 	 43.494 	 -34.006 	 -119.153 	 
H 	 43.3159 	 -34.6561 	 -120.788 	 
C 	 42.3685 	 -32.7228 	 -120.539 	 
H 	 42.3076 	 -32.5163 	 -121.642 	 
H 	 42.5784 	 -31.7157 	 -120.19 	 
C 	 40.926 	 -33.3246 	 -120.128 	 
H 	 40.6485 	 -34.1156 	 -120.779 	 
H 	 40.0756 	 -32.7213 	 -120.355 	 
H 	 40.857 	 -33.5879 	 -119.084 	 
H 	 43.9699 	 -32.4131 	 -126.484 	 
H 	 48.1341 	 -33.3834 	 -119.552 	 
