34

S 	 -96.229 	 -2.25068 	 -119.425 	 
C 	 -97.4254 	 -1.12789 	 -120.177 	 
C 	 -98.6952 	 -1.23671 	 -119.517 	 
C 	 -98.6491 	 -2.30071 	 -118.546 	 
C 	 -97.4416 	 -2.95073 	 -118.392 	 
H 	 -99.4476 	 -2.60253 	 -117.897 	 
C 	 -99.9268 	 -0.435932 	 -119.914 	 
H 	 -99.849 	 0.670194 	 -120.01 	 
H 	 -100.609 	 -0.493411 	 -119.092 	 
C 	 -100.45 	 -1.01971 	 -121.209 	 
H 	 -99.9038 	 -0.558842 	 -122.041 	 
H 	 -100.311 	 -2.14336 	 -121.262 	 
C 	 -101.946 	 -0.768193 	 -121.474 	 
H 	 -102.623 	 -1.15807 	 -120.617 	 
H 	 -102.164 	 0.263518 	 -121.762 	 
H 	 -102.363 	 -1.33377 	 -122.283 	 
S 	 -95.8382 	 -3.64846 	 -116.323 	 
C 	 -96.1196 	 -5.155 	 -115.43 	 
C 	 -97.0003 	 -5.96444 	 -116.164 	 
C 	 -97.6114 	 -5.28162 	 -117.257 	 
C 	 -97.0994 	 -4.0156 	 -117.465 	 
H 	 -97.2492 	 -6.95777 	 -115.805 	 
C 	 -98.584 	 -5.9712 	 -118.235 	 
H 	 -99.4441 	 -5.3445 	 -118.467 	 
H 	 -99.043 	 -6.86588 	 -117.746 	 
C 	 -97.8817 	 -6.46163 	 -119.429 	 
H 	 -97.3197 	 -5.70412 	 -119.818 	 
H 	 -98.6457 	 -6.6592 	 -120.196 	 
C 	 -96.9364 	 -7.69846 	 -119.227 	 
H 	 -96.4506 	 -7.94595 	 -120.219 	 
H 	 -97.6494 	 -8.4582 	 -118.901 	 
H 	 -96.2784 	 -7.51333 	 -118.388 	 
H 	 -97.0545 	 -0.443718 	 -120.92 	 
H 	 -95.5355 	 -5.49638 	 -114.512 	 
