34

S 	 -55.4201 	 -49.8086 	 -84.81 	 
C 	 -56.3248 	 -49.9663 	 -86.3199 	 
C 	 -56.3387 	 -48.7491 	 -87.0358 	 
C 	 -55.4157 	 -47.8139 	 -86.4389 	 
C 	 -54.897 	 -48.2307 	 -85.1612 	 
H 	 -55.2188 	 -46.8225 	 -86.8024 	 
C 	 -57.0644 	 -48.3667 	 -88.3517 	 
H 	 -57.7575 	 -49.1849 	 -88.5233 	 
H 	 -56.2216 	 -48.4757 	 -89.0171 	 
C 	 -57.7622 	 -46.9551 	 -88.484 	 
H 	 -57.0451 	 -46.1871 	 -88.7618 	 
H 	 -58.395 	 -46.9474 	 -89.3665 	 
C 	 -58.6279 	 -46.5764 	 -87.2373 	 
H 	 -58.8955 	 -45.5214 	 -87.3176 	 
H 	 -59.5398 	 -47.2774 	 -87.1366 	 
H 	 -57.8771 	 -46.4869 	 -86.4846 	 
S 	 -52.2154 	 -47.8079 	 -84.6418 	 
C 	 -51.8148 	 -46.7592 	 -83.2844 	 
C 	 -52.8976 	 -46.1058 	 -82.7409 	 
C 	 -54.1341 	 -46.5768 	 -83.2941 	 
C 	 -53.9393 	 -47.5505 	 -84.2438 	 
H 	 -52.8776 	 -45.3349 	 -82.0057 	 
C 	 -55.4855 	 -45.9622 	 -82.9994 	 
H 	 -56.2198 	 -46.7518 	 -83.2357 	 
H 	 -55.6969 	 -45.1025 	 -83.6685 	 
C 	 -55.7632 	 -45.5578 	 -81.5751 	 
H 	 -55.0782 	 -44.7459 	 -81.3646 	 
H 	 -55.5076 	 -46.4443 	 -81.0024 	 
C 	 -57.2608 	 -45.2289 	 -81.2904 	 
H 	 -57.345 	 -44.7265 	 -80.2776 	 
H 	 -57.8337 	 -46.2059 	 -81.179 	 
H 	 -57.7947 	 -44.6108 	 -82.0284 	 
H 	 -57.0537 	 -50.8348 	 -86.5376 	 
H 	 -50.7735 	 -46.4445 	 -83.1843 	 
