34

S 	 -81.264 	 -6.20482 	 5.21464 	 
C 	 -80.7856 	 -4.83795 	 4.24953 	 
C 	 -79.8234 	 -5.15412 	 3.27616 	 
C 	 -79.4838 	 -6.5224 	 3.36813 	 
C 	 -80.1785 	 -7.28327 	 4.27611 	 
H 	 -78.7608 	 -6.95887 	 2.6406 	 
C 	 -79.2494 	 -4.24221 	 2.21961 	 
H 	 -79.8738 	 -3.39095 	 2.25571 	 
H 	 -79.406 	 -4.67331 	 1.25953 	 
C 	 -77.6853 	 -3.9743 	 2.36969 	 
H 	 -77.4486 	 -2.95067 	 1.99653 	 
H 	 -77.5179 	 -3.82781 	 3.47697 	 
C 	 -76.6744 	 -4.92128 	 1.71701 	 
H 	 -76.8034 	 -5.13942 	 0.71944 	 
H 	 -75.6644 	 -4.53227 	 1.76815 	 
H 	 -76.5678 	 -5.89905 	 2.2852 	 
S 	 -81.6264 	 -9.57384 	 3.68459 	 
C 	 -80.7918 	 -11.1253 	 3.75142 	 
C 	 -79.4645 	 -10.9575 	 3.90643 	 
C 	 -79.0519 	 -9.57809 	 4.16857 	 
C 	 -80.1654 	 -8.75975 	 4.20502 	 
H 	 -78.8649 	 -11.8172 	 3.72104 	 
C 	 -77.5923 	 -9.12149 	 4.39439 	 
H 	 -77.1282 	 -9.87492 	 5.08387 	 
H 	 -77.5701 	 -8.16048 	 4.8381 	 
C 	 -76.759 	 -9.00264 	 3.16001 	 
H 	 -77.4448 	 -8.7021 	 2.38977 	 
H 	 -76.4783 	 -9.9996 	 2.94822 	 
C 	 -75.5243 	 -8.18485 	 3.35057 	 
H 	 -74.8226 	 -8.53151 	 4.10066 	 
H 	 -75.7737 	 -7.24712 	 3.7298 	 
H 	 -75.1345 	 -7.89106 	 2.40152 	 
H 	 -81.3621 	 -3.87885 	 4.22318 	 
H 	 -81.2318 	 -12.123 	 3.60662 	 
