34

S 	 -111.441 	 54.9195 	 -79.4489 	 
C 	 -112.536 	 54.9804 	 -80.8137 	 
C 	 -112.593 	 56.2736 	 -81.2907 	 
C 	 -111.798 	 57.19 	 -80.5507 	 
C 	 -111.017 	 56.6369 	 -79.5063 	 
H 	 -111.638 	 58.191 	 -80.8305 	 
C 	 -113.482 	 56.6187 	 -82.4301 	 
H 	 -114.355 	 56.1565 	 -82.3226 	 
H 	 -113.13 	 56.1117 	 -83.3218 	 
C 	 -113.858 	 58.1332 	 -82.6068 	 
H 	 -114.652 	 58.2246 	 -83.3215 	 
H 	 -114.197 	 58.6232 	 -81.713 	 
C 	 -112.718 	 58.8664 	 -83.3665 	 
H 	 -112.899 	 59.917 	 -83.4191 	 
H 	 -111.763 	 58.6327 	 -82.9631 	 
H 	 -112.726 	 58.4264 	 -84.3972 	 
S 	 -108.438 	 56.6838 	 -78.534 	 
C 	 -107.881 	 58.0715 	 -77.634 	 
C 	 -108.863 	 58.9958 	 -77.4492 	 
C 	 -110.094 	 58.6506 	 -78.1298 	 
C 	 -110.006 	 57.3788 	 -78.7147 	 
H 	 -108.832 	 60.0004 	 -76.9709 	 
C 	 -111.265 	 59.5593 	 -78.1051 	 
H 	 -112.13 	 59.1883 	 -78.6565 	 
H 	 -110.944 	 60.4117 	 -78.6812 	 
C 	 -111.81 	 59.9894 	 -76.7365 	 
H 	 -110.954 	 60.4143 	 -76.2202 	 
H 	 -112.148 	 59.188 	 -76.1002 	 
C 	 -112.913 	 61.0603 	 -76.7746 	 
H 	 -112.548 	 61.8365 	 -77.4291 	 
H 	 -113.189 	 61.5068 	 -75.8128 	 
H 	 -113.743 	 60.6093 	 -77.2337 	 
H 	 -113.116 	 54.1901 	 -81.2275 	 
H 	 -106.94 	 58.1944 	 -77.0322 	 
