34

S 	 -31.1639 	 -34.9777 	 -93.635 	 
C 	 -32.378 	 -36.0671 	 -93.0569 	 
C 	 -31.8221 	 -37.1868 	 -92.4806 	 
C 	 -30.4616 	 -36.99 	 -92.2599 	 
C 	 -29.9014 	 -35.8348 	 -92.8334 	 
H 	 -29.7371 	 -37.5535 	 -91.6509 	 
C 	 -32.501 	 -38.4566 	 -91.98 	 
H 	 -33.3685 	 -38.0267 	 -91.5033 	 
H 	 -31.8281 	 -38.8941 	 -91.2109 	 
C 	 -32.7688 	 -39.4379 	 -93.0181 	 
H 	 -33.4435 	 -38.9152 	 -93.6149 	 
H 	 -31.8268 	 -39.5755 	 -93.5876 	 
C 	 -33.3707 	 -40.8167 	 -92.6058 	 
H 	 -33.1088 	 -41.574 	 -93.3991 	 
H 	 -33.0724 	 -41.2572 	 -91.6457 	 
H 	 -34.4461 	 -40.8491 	 -92.4966 	 
S 	 -27.2494 	 -36.1973 	 -93.5525 	 
C 	 -26.1066 	 -35.1273 	 -92.8953 	 
C 	 -26.6345 	 -34.2903 	 -91.9566 	 
C 	 -28.0437 	 -34.3722 	 -91.8647 	 
C 	 -28.5542 	 -35.329 	 -92.7128 	 
H 	 -26.0136 	 -33.685 	 -91.3939 	 
C 	 -28.8023 	 -33.3733 	 -90.973 	 
H 	 -28.1901 	 -33.0478 	 -90.0983 	 
H 	 -29.6479 	 -33.9499 	 -90.5159 	 
C 	 -29.2907 	 -32.1019 	 -91.8326 	 
H 	 -30.022 	 -32.4322 	 -92.5366 	 
H 	 -28.5174 	 -31.7827 	 -92.6 	 
C 	 -29.8312 	 -30.9443 	 -91.0035 	 
H 	 -30.0009 	 -30.0826 	 -91.7123 	 
H 	 -29.1822 	 -30.6187 	 -90.231 	 
H 	 -30.7969 	 -31.2467 	 -90.6241 	 
H 	 -33.4486 	 -36.0666 	 -93.4448 	 
H 	 -25.0586 	 -35.0345 	 -93.0898 	 
