34

S 	 -37.6249 	 9.97128 	 25.3893 	 
C 	 -39.2874 	 9.74465 	 24.9964 	 
C 	 -40.0711 	 10.0343 	 26.11 	 
C 	 -39.2936 	 10.5104 	 27.258 	 
C 	 -37.9189 	 10.3651 	 27.0922 	 
H 	 -39.6031 	 10.8264 	 28.2498 	 
C 	 -41.5408 	 9.89403 	 26.0878 	 
H 	 -41.7515 	 8.82758 	 26.0283 	 
H 	 -41.8699 	 10.334 	 25.1722 	 
C 	 -42.3566 	 10.3589 	 27.4472 	 
H 	 -41.8123 	 9.96622 	 28.2742 	 
H 	 -42.5387 	 11.3896 	 27.5227 	 
C 	 -43.797 	 9.73317 	 27.407 	 
H 	 -44.2831 	 9.84105 	 28.3339 	 
H 	 -44.4264 	 10.2248 	 26.6291 	 
H 	 -43.7681 	 8.68934 	 27.3028 	 
S 	 -36.3335 	 12.5097 	 27.8259 	 
C 	 -35.3215 	 12.3393 	 29.2618 	 
C 	 -35.5818 	 11.1292 	 29.929 	 
C 	 -36.5241 	 10.3011 	 29.2698 	 
C 	 -36.9376 	 10.8582 	 28.0573 	 
H 	 -35.0948 	 10.9308 	 30.8148 	 
C 	 -36.8168 	 8.91717 	 29.8434 	 
H 	 -35.8541 	 8.39819 	 29.904 	 
H 	 -37.3905 	 8.21689 	 29.2331 	 
C 	 -37.4312 	 9.00394 	 31.2583 	 
H 	 -36.7142 	 9.46994 	 31.9688 	 
H 	 -37.5507 	 8.03874 	 31.7027 	 
C 	 -38.7845 	 9.75777 	 31.4236 	 
H 	 -39.4757 	 9.03684 	 31.013 	 
H 	 -38.7992 	 10.7392 	 30.9545 	 
H 	 -39.0483 	 9.99049 	 32.4702 	 
H 	 -39.6969 	 9.49146 	 24.0619 	 
H 	 -34.6482 	 13.0375 	 29.6741 	 
