34

S 	 -36.4366 	 -29.2403 	 -98.2719 	 
C 	 -35.5823 	 -29.203 	 -99.8082 	 
C 	 -35.6006 	 -30.4767 	 -100.369 	 
C 	 -36.0698 	 -31.4717 	 -99.4503 	 
C 	 -36.5379 	 -30.9541 	 -98.2353 	 
H 	 -36.1486 	 -32.5681 	 -99.5949 	 
C 	 -35.2216 	 -30.8289 	 -101.788 	 
H 	 -35.2512 	 -31.9283 	 -101.795 	 
H 	 -34.2229 	 -30.559 	 -101.932 	 
C 	 -36.0838 	 -30.2236 	 -102.948 	 
H 	 -36.2261 	 -29.163 	 -102.73 	 
H 	 -35.6933 	 -30.4085 	 -103.973 	 
C 	 -37.493 	 -30.8941 	 -102.985 	 
H 	 -37.6054 	 -31.6406 	 -103.791 	 
H 	 -37.7639 	 -31.4769 	 -102.112 	 
H 	 -38.1714 	 -30.1071 	 -103.235 	 
S 	 -39.1156 	 -31.0231 	 -97.0895 	 
C 	 -39.475 	 -32.3441 	 -95.9855 	 
C 	 -38.3437 	 -33.0508 	 -95.6071 	 
C 	 -37.2646 	 -32.6126 	 -96.3703 	 
C 	 -37.4666 	 -31.5485 	 -97.2535 	 
H 	 -38.4403 	 -33.7476 	 -94.7502 	 
C 	 -35.9098 	 -33.2277 	 -96.302 	 
H 	 -35.4093 	 -33.2511 	 -97.29 	 
H 	 -35.9586 	 -34.3721 	 -96.0779 	 
C 	 -34.9311 	 -32.4166 	 -95.3845 	 
H 	 -35.0932 	 -32.5023 	 -94.3171 	 
H 	 -35.0768 	 -31.3208 	 -95.5227 	 
C 	 -33.4581 	 -32.8419 	 -95.7874 	 
H 	 -33.2712 	 -32.5588 	 -96.8144 	 
H 	 -33.3542 	 -33.959 	 -95.7677 	 
H 	 -32.8451 	 -32.317 	 -95.0983 	 
H 	 -35.4366 	 -28.2919 	 -100.455 	 
H 	 -40.3839 	 -32.4232 	 -95.3761 	 
