34

S 	 -0.549965 	 -23.8488 	 -110.64 	 
C 	 0.489709 	 -23.5916 	 -112.065 	 
C 	 1.58127 	 -24.4721 	 -112.097 	 
C 	 1.64231 	 -25.2684 	 -110.833 	 
C 	 0.50066 	 -25.0947 	 -110.012 	 
H 	 2.31581 	 -25.9551 	 -110.514 	 
C 	 2.58631 	 -24.5383 	 -113.162 	 
H 	 2.68956 	 -23.5248 	 -113.716 	 
H 	 2.30539 	 -25.2346 	 -113.986 	 
C 	 4.01907 	 -24.4468 	 -112.691 	 
H 	 4.04054 	 -23.6283 	 -111.931 	 
H 	 4.33164 	 -25.3516 	 -112.212 	 
C 	 5.01677 	 -24.1766 	 -113.83 	 
H 	 4.6891 	 -24.7753 	 -114.716 	 
H 	 5.0062 	 -23.1491 	 -114.11 	 
H 	 6.01284 	 -24.3954 	 -113.488 	 
S 	 -0.0864632 	 -24.9808 	 -107.414 	 
C 	 -0.550137 	 -26.4441 	 -106.58 	 
C 	 -0.381686 	 -27.5649 	 -107.35 	 
C 	 0.0528401 	 -27.2326 	 -108.652 	 
C 	 0.079859 	 -25.9013 	 -108.877 	 
H 	 -0.693469 	 -28.4447 	 -106.851 	 
C 	 0.321408 	 -28.3633 	 -109.587 	 
H 	 0.517543 	 -27.8542 	 -110.508 	 
H 	 -0.654012 	 -28.7642 	 -109.788 	 
C 	 1.47774 	 -29.2399 	 -109.152 	 
H 	 1.19868 	 -29.6361 	 -108.171 	 
H 	 2.42854 	 -28.6923 	 -109.003 	 
C 	 1.74916 	 -30.3715 	 -110.152 	 
H 	 2.58389 	 -31.0404 	 -109.849 	 
H 	 1.95738 	 -29.9749 	 -111.14 	 
H 	 0.894575 	 -30.944 	 -110.339 	 
H 	 0.312333 	 -22.8532 	 -112.799 	 
H 	 -0.809402 	 -26.5161 	 -105.54 	 
