34

S 	 -134.639 	 65.7636 	 -58.4422 	 
C 	 -134.239 	 63.9936 	 -58.6429 	 
C 	 -135.251 	 63.2479 	 -58.1293 	 
C 	 -136.472 	 63.9915 	 -57.9012 	 
C 	 -136.328 	 65.3796 	 -58.1016 	 
H 	 -137.467 	 63.5749 	 -57.6723 	 
C 	 -135.082 	 61.8018 	 -57.9492 	 
H 	 -134.02 	 61.6061 	 -57.7197 	 
H 	 -135.048 	 61.4656 	 -58.9773 	 
C 	 -135.988 	 60.9454 	 -57.0063 	 
H 	 -137.045 	 61.1496 	 -57.3108 	 
H 	 -135.831 	 59.9295 	 -57.2465 	 
C 	 -135.852 	 61.2137 	 -55.4669 	 
H 	 -134.749 	 61.2662 	 -55.338 	 
H 	 -136.317 	 62.1852 	 -55.1993 	 
H 	 -136.308 	 60.4159 	 -54.8219 	 
S 	 -136.755 	 67.6338 	 -56.5918 	 
C 	 -138.302 	 68.4091 	 -56.5604 	 
C 	 -139.105 	 67.8099 	 -57.4788 	 
C 	 -138.45 	 66.8706 	 -58.2752 	 
C 	 -137.292 	 66.4288 	 -57.6952 	 
H 	 -140.119 	 68.2017 	 -57.5174 	 
C 	 -139.161 	 66.4182 	 -59.5362 	 
H 	 -139.864 	 65.591 	 -59.2748 	 
H 	 -138.399 	 65.8963 	 -60.1308 	 
C 	 -139.686 	 67.5055 	 -60.448 	 
H 	 -138.875 	 68.2533 	 -60.5403 	 
H 	 -140.533 	 67.9414 	 -59.9569 	 
C 	 -140.035 	 67.043 	 -61.8981 	 
H 	 -140.618 	 66.0774 	 -61.9513 	 
H 	 -139.128 	 66.8777 	 -62.3514 	 
H 	 -140.716 	 67.8044 	 -62.3576 	 
H 	 -133.189 	 63.5933 	 -58.8058 	 
H 	 -138.552 	 69.312 	 -55.9877 	 
