34

S 	 20.4911 	 -26.3099 	 -116.976 	 
C 	 21.3135 	 -27.6921 	 -117.563 	 
C 	 22.6192 	 -27.4256 	 -117.959 	 
C 	 22.9298 	 -26.0618 	 -117.783 	 
C 	 21.8735 	 -25.3255 	 -117.343 	 
H 	 23.8078 	 -25.4819 	 -118.116 	 
C 	 23.5638 	 -28.4983 	 -118.516 	 
H 	 24.2161 	 -27.955 	 -119.216 	 
H 	 22.9612 	 -29.217 	 -119.051 	 
C 	 24.4776 	 -29.0719 	 -117.461 	 
H 	 25.0256 	 -28.2447 	 -117.061 	 
H 	 24.2098 	 -29.5464 	 -116.539 	 
C 	 25.436 	 -30.1904 	 -117.984 	 
H 	 25.7528 	 -29.909 	 -118.938 	 
H 	 26.2914 	 -30.5001 	 -117.365 	 
H 	 24.8962 	 -31.1829 	 -118.075 	 
S 	 23.0222 	 -23.3883 	 -115.899 	 
C 	 22.6337 	 -21.733 	 -116.237 	 
C 	 21.832 	 -21.6106 	 -117.332 	 
C 	 21.3053 	 -22.8569 	 -117.74 	 
C 	 21.8985 	 -23.9385 	 -117.118 	 
H 	 21.6329 	 -20.5709 	 -117.739 	 
C 	 20.2449 	 -22.9089 	 -118.833 	 
H 	 20.2305 	 -23.8979 	 -119.191 	 
H 	 20.5901 	 -22.3876 	 -119.724 	 
C 	 18.8989 	 -22.472 	 -118.304 	 
H 	 19.2208 	 -21.6917 	 -117.607 	 
H 	 18.3872 	 -23.3047 	 -117.865 	 
C 	 17.8601 	 -21.9306 	 -119.339 	 
H 	 18.2798 	 -21.2831 	 -120.156 	 
H 	 17.0595 	 -21.3852 	 -118.883 	 
H 	 17.4203 	 -22.8001 	 -119.833 	 
H 	 20.9371 	 -28.6951 	 -117.353 	 
H 	 23.1563 	 -20.907 	 -115.761 	 
