34

S 	 -63.9751 	 22.7638 	 -116.171 	 
C 	 -62.4633 	 22.2865 	 -116.914 	 
C 	 -61.9132 	 21.2163 	 -116.224 	 
C 	 -62.7795 	 20.682 	 -115.235 	 
C 	 -63.9156 	 21.4145 	 -115.07 	 
H 	 -62.5035 	 19.8161 	 -114.567 	 
C 	 -60.611 	 20.5329 	 -116.603 	 
H 	 -60.2378 	 20.8201 	 -117.584 	 
H 	 -61.1514 	 19.6153 	 -116.77 	 
C 	 -59.5237 	 20.5646 	 -115.517 	 
H 	 -59.6635 	 19.9015 	 -114.691 	 
H 	 -58.6305 	 20.1376 	 -115.826 	 
C 	 -59.1805 	 21.9492 	 -115.047 	 
H 	 -59.0648 	 22.5708 	 -115.875 	 
H 	 -60.0325 	 22.3946 	 -114.531 	 
H 	 -58.2022 	 22.0206 	 -114.588 	 
S 	 -66.4203 	 20.2267 	 -114.711 	 
C 	 -67.0797 	 20.3597 	 -113.159 	 
C 	 -66.2752 	 20.8999 	 -112.238 	 
C 	 -64.9941 	 21.2139 	 -112.75 	 
C 	 -64.9709 	 21.119 	 -114.112 	 
H 	 -66.5282 	 20.9762 	 -111.18 	 
C 	 -63.9515 	 21.8496 	 -111.831 	 
H 	 -63.315 	 22.5164 	 -112.434 	 
H 	 -63.3953 	 21.1658 	 -111.349 	 
C 	 -64.4875 	 22.7392 	 -110.701 	 
H 	 -65.0084 	 22.1268 	 -109.936 	 
H 	 -65.317 	 23.4313 	 -111.015 	 
C 	 -63.44 	 23.6075 	 -110.064 	 
H 	 -62.5906 	 23.0383 	 -109.637 	 
H 	 -63.9351 	 23.979 	 -109.163 	 
H 	 -62.8476 	 24.3721 	 -110.573 	 
H 	 -62.0107 	 22.783 	 -117.723 	 
H 	 -68.0724 	 20.1889 	 -112.952 	 
