34

S 	 -125.13 	 61.5257 	 -51.6775 	 
C 	 -123.885 	 62.5887 	 -51.2305 	 
C 	 -124.405 	 63.8083 	 -50.7466 	 
C 	 -125.828 	 63.7929 	 -50.5256 	 
C 	 -126.374 	 62.5721 	 -50.9211 	 
H 	 -126.491 	 64.6567 	 -50.3146 	 
C 	 -123.638 	 65.1062 	 -50.5899 	 
H 	 -122.527 	 64.9932 	 -50.3323 	 
H 	 -124.037 	 65.601 	 -49.7295 	 
C 	 -123.754 	 66.1643 	 -51.7175 	 
H 	 -124.752 	 66.569 	 -51.7224 	 
H 	 -123.228 	 67.0995 	 -51.4317 	 
C 	 -123.363 	 65.7178 	 -53.029 	 
H 	 -123.947 	 64.8412 	 -53.3632 	 
H 	 -123.426 	 66.4558 	 -53.8773 	 
H 	 -122.335 	 65.4574 	 -53.0639 	 
S 	 -128.698 	 63.3129 	 -52.0483 	 
C 	 -130.068 	 62.3518 	 -52.0456 	 
C 	 -129.784 	 61.2249 	 -51.3029 	 
C 	 -128.511 	 61.2028 	 -50.6942 	 
C 	 -127.754 	 62.2645 	 -51.0752 	 
H 	 -130.553 	 60.4375 	 -51.2644 	 
C 	 -128.102 	 60.0562 	 -49.856 	 
H 	 -127.036 	 60.2895 	 -49.5103 	 
H 	 -127.926 	 59.0907 	 -50.4127 	 
C 	 -129.098 	 59.7098 	 -48.7587 	 
H 	 -130.014 	 59.5833 	 -49.2461 	 
H 	 -129.25 	 60.6666 	 -48.2417 	 
C 	 -128.705 	 58.6231 	 -47.8207 	 
H 	 -129.519 	 58.4725 	 -47.1609 	 
H 	 -127.898 	 58.9002 	 -47.1718 	 
H 	 -128.523 	 57.6766 	 -48.2551 	 
H 	 -122.861 	 62.4437 	 -51.655 	 
H 	 -130.9 	 62.5901 	 -52.6897 	 
