34

S 	 -112.016 	 16.7038 	 -10.6475 	 
C 	 -111.623 	 16.221 	 -8.99807 	 
C 	 -112.24 	 15.0062 	 -8.66539 	 
C 	 -113.112 	 14.6206 	 -9.73901 	 
C 	 -113.133 	 15.3836 	 -10.8426 	 
H 	 -113.634 	 13.718 	 -9.72485 	 
C 	 -112.077 	 14.1727 	 -7.44979 	 
H 	 -112.985 	 14.0586 	 -6.93379 	 
H 	 -111.459 	 14.8229 	 -6.86414 	 
C 	 -111.273 	 12.8368 	 -7.51636 	 
H 	 -110.422 	 13.1143 	 -8.05019 	 
H 	 -110.816 	 12.5499 	 -6.57101 	 
C 	 -111.954 	 11.6675 	 -8.25671 	 
H 	 -111.291 	 10.8071 	 -8.12833 	 
H 	 -112.993 	 11.5566 	 -7.94278 	 
H 	 -111.997 	 11.8828 	 -9.29647 	 
S 	 -112.981 	 14.9484 	 -13.503 	 
C 	 -114.308 	 13.9981 	 -14.2443 	 
C 	 -115.444 	 13.9869 	 -13.4352 	 
C 	 -115.193 	 14.513 	 -12.1404 	 
C 	 -113.901 	 14.9969 	 -12.0058 	 
H 	 -116.356 	 13.5244 	 -13.7586 	 
C 	 -116.221 	 14.4017 	 -11.0375 	 
H 	 -115.973 	 15.0448 	 -10.1764 	 
H 	 -115.993 	 13.3684 	 -10.7503 	 
C 	 -117.695 	 14.6871 	 -11.3938 	 
H 	 -118.313 	 14.2993 	 -10.6436 	 
H 	 -118.039 	 14.0788 	 -12.2172 	 
C 	 -117.995 	 16.1467 	 -11.6564 	 
H 	 -118.988 	 16.3388 	 -12.0938 	 
H 	 -117.342 	 16.4807 	 -12.4588 	 
H 	 -117.755 	 16.8366 	 -10.8667 	 
H 	 -110.924 	 16.7869 	 -8.31866 	 
H 	 -114.337 	 13.8966 	 -15.2714 	 
