34

S 	 -44.7814 	 11.3834 	 24.0333 	 
C 	 -44.26 	 11.9046 	 22.43 	 
C 	 -45.3259 	 12.5493 	 21.8325 	 
C 	 -46.5017 	 12.643 	 22.6262 	 
C 	 -46.4171 	 11.9552 	 23.8141 	 
H 	 -47.477 	 13.1019 	 22.3797 	 
C 	 -45.151 	 13.3535 	 20.6134 	 
H 	 -44.3236 	 14.0688 	 20.7605 	 
H 	 -46.0871 	 13.9285 	 20.4569 	 
C 	 -44.8698 	 12.5835 	 19.2941 	 
H 	 -44.1932 	 11.7391 	 19.4466 	 
H 	 -45.747 	 12.1897 	 18.9533 	 
C 	 -44.4601 	 13.5343 	 18.1487 	 
H 	 -43.6686 	 14.2111 	 18.5132 	 
H 	 -43.9274 	 12.9209 	 17.4043 	 
H 	 -45.3647 	 13.9364 	 17.6539 	 
S 	 -47.2598 	 12.6159 	 26.3687 	 
C 	 -48.84 	 12.0668 	 26.8028 	 
C 	 -49.5255 	 11.4874 	 25.765 	 
C 	 -48.7723 	 11.4589 	 24.5685 	 
C 	 -47.497 	 11.9221 	 24.8217 	 
H 	 -50.5115 	 11.1462 	 25.8206 	 
C 	 -49.1934 	 10.7183 	 23.3085 	 
H 	 -49.3027 	 9.67678 	 23.5442 	 
H 	 -48.4781 	 10.6656 	 22.5635 	 
C 	 -50.5516 	 11.199 	 22.7916 	 
H 	 -50.6235 	 12.1779 	 22.5148 	 
H 	 -51.232 	 11.0509 	 23.5607 	 
C 	 -50.9832 	 10.3694 	 21.5438 	 
H 	 -51.0428 	 9.29576 	 21.8152 	 
H 	 -50.2715 	 10.4405 	 20.725 	 
H 	 -51.9631 	 10.5618 	 21.1719 	 
H 	 -43.3018 	 11.701 	 22.0273 	 
H 	 -49.3646 	 12.276 	 27.7305 	 
