34

S 	 -42.1403 	 29.0752 	 29.4156 	 
C 	 -43.4505 	 30.2422 	 29.686 	 
C 	 -44.5362 	 29.6058 	 30.2112 	 
C 	 -44.3751 	 28.1709 	 30.1979 	 
C 	 -43.1274 	 27.6991 	 29.7988 	 
H 	 -45.1404 	 27.4517 	 30.4344 	 
C 	 -45.848 	 30.2047 	 30.4364 	 
H 	 -46.4395 	 29.8866 	 29.5743 	 
H 	 -45.8267 	 31.2603 	 30.2547 	 
C 	 -46.6367 	 29.7463 	 31.7152 	 
H 	 -47.64 	 30.1427 	 31.6189 	 
H 	 -46.6261 	 28.6838 	 31.8382 	 
C 	 -46.0197 	 30.2037 	 32.9991 	 
H 	 -46.1024 	 31.2535 	 33.0484 	 
H 	 -46.6328 	 29.8237 	 33.815 	 
H 	 -44.9607 	 29.9195 	 33.0724 	 
S 	 -41.9065 	 26.0897 	 27.8885 	 
C 	 -42.193 	 24.4144 	 27.8012 	 
C 	 -42.9457 	 24.0146 	 28.9056 	 
C 	 -43.2568 	 25.0768 	 29.7741 	 
C 	 -42.8006 	 26.329 	 29.3647 	 
H 	 -43.2504 	 23.022 	 28.9584 	 
C 	 -44.0825 	 24.79 	 31.0602 	 
H 	 -44.3759 	 25.8078 	 31.3836 	 
H 	 -43.2767 	 24.2954 	 31.6467 	 
C 	 -45.4193 	 24.0167 	 30.8951 	 
H 	 -45.1894 	 23.0132 	 30.4166 	 
H 	 -46.11 	 24.4996 	 30.1622 	 
C 	 -46.1926 	 23.9149 	 32.1968 	 
H 	 -45.6619 	 23.6538 	 33.0853 	 
H 	 -46.9564 	 23.1695 	 31.99 	 
H 	 -46.6853 	 24.8446 	 32.4604 	 
H 	 -43.4558 	 31.2989 	 29.5435 	 
H 	 -41.9835 	 23.796 	 26.9555 	 
