34

S 	 -71.5445 	 16.9257 	 -74.1692 	 
C 	 -69.9506 	 16.3716 	 -73.8408 	 
C 	 -69.0854 	 16.9018 	 -74.8154 	 
C 	 -69.766 	 17.5609 	 -75.9348 	 
C 	 -71.117 	 17.5152 	 -75.7796 	 
H 	 -69.3038 	 17.9322 	 -76.8471 	 
C 	 -67.5857 	 16.9566 	 -74.7025 	 
H 	 -67.2289 	 17.0305 	 -75.7264 	 
H 	 -67.2387 	 16.0129 	 -74.1769 	 
C 	 -66.9588 	 18.1283 	 -73.8967 	 
H 	 -65.9125 	 18.1345 	 -74.1119 	 
H 	 -67.3071 	 19.0609 	 -74.2621 	 
C 	 -67.2506 	 18.088 	 -72.3822 	 
H 	 -66.7637 	 17.2714 	 -71.8728 	 
H 	 -66.9857 	 19.0516 	 -71.8246 	 
H 	 -68.2689 	 18.1343 	 -72.2558 	 
S 	 -73.5676 	 17.107 	 -76.6616 	 
C 	 -74.2329 	 17.9773 	 -78.0238 	 
C 	 -73.4046 	 18.9862 	 -78.4193 	 
C 	 -72.1457 	 18.9319 	 -77.7763 	 
C 	 -72.0874 	 18.0734 	 -76.7153 	 
H 	 -73.6614 	 19.657 	 -79.2283 	 
C 	 -70.9321 	 19.7634 	 -78.2373 	 
H 	 -70.1905 	 19.8119 	 -77.4238 	 
H 	 -71.2439 	 20.7624 	 -78.577 	 
C 	 -70.0925 	 19.0867 	 -79.2316 	 
H 	 -70.7503 	 18.9632 	 -80.0909 	 
H 	 -70.0746 	 18.0384 	 -78.8999 	 
C 	 -68.7756 	 19.7873 	 -79.5318 	 
H 	 -68.0987 	 19.1408 	 -79.9817 	 
H 	 -68.2795 	 19.9857 	 -78.53 	 
H 	 -68.9467 	 20.6562 	 -80.1151 	 
H 	 -69.717 	 15.9607 	 -72.8841 	 
H 	 -75.1564 	 17.6467 	 -78.4477 	 
