34

S 	 -37.4369 	 -43.5939 	 -79.6468 	 
C 	 -37.6812 	 -42.1737 	 -78.5815 	 
C 	 -36.4684 	 -41.8545 	 -77.971 	 
C 	 -35.3599 	 -42.5603 	 -78.4413 	 
C 	 -35.6899 	 -43.5896 	 -79.3102 	 
H 	 -34.4025 	 -42.5165 	 -78.0852 	 
C 	 -36.2731 	 -40.868 	 -76.9232 	 
H 	 -35.684 	 -41.1558 	 -76.076 	 
H 	 -37.2818 	 -40.8032 	 -76.4738 	 
C 	 -35.7081 	 -39.4673 	 -77.3743 	 
H 	 -34.6553 	 -39.5911 	 -77.6475 	 
H 	 -36.2025 	 -39.0094 	 -78.2055 	 
C 	 -35.6227 	 -38.4872 	 -76.2154 	 
H 	 -34.8278 	 -38.6694 	 -75.5059 	 
H 	 -35.4327 	 -37.4295 	 -76.531 	 
H 	 -36.5837 	 -38.5336 	 -75.6667 	 
S 	 -35.0054 	 -46.2969 	 -79.7307 	 
C 	 -33.7603 	 -46.6747 	 -80.9345 	 
C 	 -33.3163 	 -45.4933 	 -81.4802 	 
C 	 -33.8382 	 -44.2201 	 -80.8943 	 
C 	 -34.8206 	 -44.5136 	 -80.0071 	 
H 	 -32.7128 	 -45.5541 	 -82.3617 	 
C 	 -33.3705 	 -42.9058 	 -81.3404 	 
H 	 -32.4257 	 -42.9474 	 -81.8431 	 
H 	 -33.0508 	 -42.5596 	 -80.3749 	 
C 	 -34.3997 	 -41.9263 	 -82.0107 	 
H 	 -35.2835 	 -41.811 	 -81.3943 	 
H 	 -34.7661 	 -42.3797 	 -82.9873 	 
C 	 -33.8632 	 -40.4766 	 -82.2625 	 
H 	 -33.6022 	 -40.2023 	 -81.306 	 
H 	 -34.7464 	 -39.9559 	 -82.6914 	 
H 	 -33.0789 	 -40.5918 	 -82.9127 	 
H 	 -38.6388 	 -41.7088 	 -78.4063 	 
H 	 -33.5607 	 -47.6195 	 -81.447 	 
