34

S 	 -52.1311 	 -48.3815 	 -80.6524 	 
C 	 -50.7048 	 -49.2423 	 -81.0353 	 
C 	 -50.9967 	 -50.304 	 -81.7965 	 
C 	 -52.433 	 -50.3507 	 -82.1126 	 
C 	 -53.2 	 -49.4448 	 -81.4626 	 
H 	 -52.8046 	 -51.2256 	 -82.5765 	 
C 	 -50.017 	 -51.4381 	 -82.1481 	 
H 	 -49.0351 	 -50.9445 	 -82.128 	 
H 	 -50.2512 	 -51.7666 	 -83.1553 	 
C 	 -49.9063 	 -52.6339 	 -81.1161 	 
H 	 -49.1002 	 -53.2549 	 -81.3603 	 
H 	 -49.9558 	 -52.2418 	 -80.1003 	 
C 	 -51.2147 	 -53.5277 	 -81.1339 	 
H 	 -52.1046 	 -52.8708 	 -81.0182 	 
H 	 -51.3339 	 -54.0442 	 -82.0987 	 
H 	 -51.1164 	 -54.291 	 -80.3466 	 
S 	 -55.2322 	 -49.2717 	 -79.595 	 
C 	 -56.8301 	 -49.425 	 -80.1491 	 
C 	 -56.8687 	 -49.489 	 -81.5094 	 
C 	 -55.6303 	 -49.3245 	 -82.1531 	 
C 	 -54.6472 	 -49.3121 	 -81.2447 	 
H 	 -57.795 	 -49.6121 	 -82.1246 	 
C 	 -55.3607 	 -49.6936 	 -83.6174 	 
H 	 -56.3075 	 -49.8392 	 -84.0654 	 
H 	 -54.8956 	 -50.6513 	 -83.8348 	 
C 	 -54.7026 	 -48.5836 	 -84.4906 	 
H 	 -53.7637 	 -48.2815 	 -84.0058 	 
H 	 -55.2275 	 -47.6734 	 -84.5139 	 
C 	 -54.4286 	 -49.0772 	 -85.9539 	 
H 	 -53.5657 	 -49.8018 	 -85.9707 	 
H 	 -54.22 	 -48.1559 	 -86.5352 	 
H 	 -55.2772 	 -49.5051 	 -86.4496 	 
H 	 -49.6768 	 -49.0707 	 -80.6525 	 
H 	 -57.5853 	 -49.6013 	 -79.4694 	 
