34

S 	 -87.4148 	 -1.23093 	 5.47068 	 
C 	 -86.069 	 -0.327772 	 4.80044 	 
C 	 -84.9156 	 -1.03536 	 4.85321 	 
C 	 -85.0489 	 -2.27496 	 5.57554 	 
C 	 -86.3284 	 -2.51852 	 6.01753 	 
H 	 -84.1735 	 -3.00496 	 5.70792 	 
C 	 -83.6743 	 -0.634425 	 3.99476 	 
H 	 -82.9442 	 -1.40707 	 4.29118 	 
H 	 -83.4041 	 0.358129 	 4.246 	 
C 	 -83.767 	 -0.770976 	 2.46384 	 
H 	 -82.7348 	 -0.732735 	 2.09268 	 
H 	 -84.2356 	 -1.74966 	 2.12276 	 
C 	 -84.407 	 0.438134 	 1.75596 	 
H 	 -83.9898 	 1.31109 	 2.17486 	 
H 	 -84.4778 	 0.425493 	 0.688812 	 
H 	 -85.459 	 0.449692 	 2.07043 	 
S 	 -88.017 	 -4.69686 	 5.7293 	 
C 	 -88.0359 	 -5.98688 	 6.87217 	 
C 	 -87.0141 	 -5.736 	 7.79224 	 
C 	 -86.3979 	 -4.45319 	 7.67911 	 
C 	 -86.7586 	 -3.78168 	 6.58696 	 
H 	 -86.7935 	 -6.49721 	 8.55162 	 
C 	 -85.4527 	 -3.94389 	 8.73628 	 
H 	 -85.8437 	 -4.33677 	 9.72405 	 
H 	 -85.5446 	 -2.88819 	 8.73992 	 
C 	 -83.9646 	 -4.42371 	 8.47906 	 
H 	 -83.803 	 -4.36141 	 7.43134 	 
H 	 -83.8988 	 -5.50634 	 8.73231 	 
C 	 -82.8841 	 -3.6653 	 9.27239 	 
H 	 -83.008 	 -3.88378 	 10.3433 	 
H 	 -82.9932 	 -2.62389 	 8.93743 	 
H 	 -81.8819 	 -4.1104 	 8.91922 	 
H 	 -86.2243 	 0.533104 	 4.12979 	 
H 	 -88.5835 	 -6.92233 	 6.77194 	 
