34

S 	 -135.47 	 13.4372 	 -5.70052 	 
C 	 -133.911 	 14.1451 	 -5.4049 	 
C 	 -133.24 	 13.3563 	 -4.47495 	 
C 	 -133.895 	 12.0836 	 -4.23758 	 
C 	 -134.941 	 11.9264 	 -5.14497 	 
H 	 -133.601 	 11.3708 	 -3.51712 	 
C 	 -131.865 	 13.7407 	 -3.97838 	 
H 	 -132.054 	 13.9053 	 -2.93107 	 
H 	 -131.63 	 14.7183 	 -4.49111 	 
C 	 -130.734 	 12.7203 	 -4.25663 	 
H 	 -129.805 	 13.2051 	 -3.95758 	 
H 	 -130.671 	 11.8655 	 -3.58052 	 
C 	 -130.821 	 12.2616 	 -5.74469 	 
H 	 -131.731 	 11.6228 	 -5.99011 	 
H 	 -130.812 	 13.1409 	 -6.36832 	 
H 	 -129.976 	 11.7193 	 -6.0509 	 
S 	 -137.428 	 10.9298 	 -4.5647 	 
C 	 -137.848 	 9.37524 	 -5.20227 	 
C 	 -136.7 	 8.64663 	 -5.52732 	 
C 	 -135.485 	 9.46366 	 -5.57664 	 
C 	 -135.78 	 10.7127 	 -5.09422 	 
H 	 -136.862 	 7.66911 	 -5.91276 	 
C 	 -134.087 	 8.95097 	 -5.92918 	 
H 	 -134.064 	 7.87203 	 -5.84358 	 
H 	 -133.279 	 9.5013 	 -5.36735 	 
C 	 -133.73 	 9.17061 	 -7.42613 	 
H 	 -133.691 	 10.2635 	 -7.67522 	 
H 	 -134.619 	 8.81506 	 -7.97337 	 
C 	 -132.499 	 8.38374 	 -7.91646 	 
H 	 -131.611 	 8.56783 	 -7.31749 	 
H 	 -132.33 	 8.65685 	 -8.96727 	 
H 	 -132.56 	 7.38322 	 -7.94827 	 
H 	 -133.551 	 15.1364 	 -5.61178 	 
H 	 -138.841 	 8.90194 	 -5.20648 	 
