34

S 	 -138.272 	 5.57267 	 3.25531 	 
C 	 -137.554 	 6.40643 	 1.86918 	 
C 	 -136.157 	 6.2822 	 1.83659 	 
C 	 -135.673 	 5.56375 	 3.01191 	 
C 	 -136.669 	 5.05095 	 3.83315 	 
H 	 -134.622 	 5.40485 	 3.16683 	 
C 	 -135.247 	 6.91985 	 0.721687 	 
H 	 -135.769 	 7.05607 	 -0.25005 	 
H 	 -134.416 	 6.32062 	 0.556979 	 
C 	 -134.548 	 8.25596 	 1.0146 	 
H 	 -134.043 	 8.75546 	 0.173248 	 
H 	 -135.283 	 8.99416 	 1.31025 	 
C 	 -133.42 	 8.24639 	 2.0255 	 
H 	 -133.806 	 7.73064 	 2.89059 	 
H 	 -132.49 	 7.77154 	 1.59997 	 
H 	 -133.142 	 9.25023 	 2.38714 	 
S 	 -137.752 	 4.42819 	 6.25261 	 
C 	 -136.817 	 3.33802 	 7.32078 	 
C 	 -135.763 	 2.82995 	 6.68942 	 
C 	 -135.49 	 3.33118 	 5.35873 	 
C 	 -136.505 	 4.24244 	 5.001 	 
H 	 -135.226 	 2.04915 	 7.15897 	 
C 	 -134.421 	 2.75863 	 4.48349 	 
H 	 -133.827 	 2.04966 	 5.01198 	 
H 	 -133.792 	 3.483 	 3.94877 	 
C 	 -135.124 	 1.745 	 3.46421 	 
H 	 -134.436 	 1.32246 	 2.70778 	 
H 	 -135.823 	 2.353 	 2.86469 	 
C 	 -135.859 	 0.545614 	 4.13082 	 
H 	 -136.195 	 -0.0532646 	 3.3323 	 
H 	 -136.798 	 0.893865 	 4.55847 	 
H 	 -135.366 	 -0.0068643 	 4.93578 	 
H 	 -138.09 	 6.72285 	 0.989683 	 
H 	 -137.205 	 3.05709 	 8.27653 	 
