34

S 	 -125.131 	 56.014 	 -60.6985 	 
C 	 -125.066 	 56.1665 	 -62.4116 	 
C 	 -126.008 	 57.1131 	 -62.7909 	 
C 	 -126.541 	 57.8414 	 -61.6896 	 
C 	 -126.166 	 57.376 	 -60.4547 	 
H 	 -127.279 	 58.6304 	 -61.7143 	 
C 	 -126.391 	 57.4263 	 -64.2014 	 
H 	 -127.418 	 57.6752 	 -64.2188 	 
H 	 -126.304 	 56.564 	 -64.8814 	 
C 	 -125.607 	 58.6054 	 -64.731 	 
H 	 -124.557 	 58.3019 	 -64.7374 	 
H 	 -125.847 	 58.6935 	 -65.8032 	 
C 	 -125.949 	 59.9822 	 -64.1977 	 
H 	 -125.361 	 60.8137 	 -64.5131 	 
H 	 -127.047 	 60.2034 	 -64.2422 	 
H 	 -125.748 	 60.0505 	 -63.1028 	 
S 	 -126.722 	 59.2107 	 -58.4632 	 
C 	 -127.708 	 58.7283 	 -57.1036 	 
C 	 -128.193 	 57.439 	 -57.2566 	 
C 	 -127.724 	 56.7533 	 -58.436 	 
C 	 -126.864 	 57.6054 	 -59.2072 	 
H 	 -128.791 	 56.9344 	 -56.4753 	 
C 	 -128.11 	 55.3446 	 -58.8471 	 
H 	 -127.722 	 55.1195 	 -59.8269 	 
H 	 -129.15 	 55.2737 	 -58.9525 	 
C 	 -127.509 	 54.258 	 -57.8822 	 
H 	 -127.768 	 54.5252 	 -56.8528 	 
H 	 -126.476 	 54.3104 	 -57.8228 	 
C 	 -128.026 	 52.8518 	 -58.3497 	 
H 	 -127.508 	 52.1856 	 -57.6911 	 
H 	 -127.988 	 52.6411 	 -59.3982 	 
H 	 -129.016 	 52.6092 	 -58.1208 	 
H 	 -124.507 	 55.5707 	 -63.1414 	 
H 	 -127.785 	 59.1204 	 -56.0552 	 
