34

S 	 -125.224 	 30.5763 	 -117.227 	 
C 	 -125.699 	 28.9654 	 -117.681 	 
C 	 -124.579 	 28.1631 	 -117.785 	 
C 	 -123.479 	 28.7478 	 -117.197 	 
C 	 -123.637 	 30.0507 	 -116.759 	 
H 	 -122.495 	 28.2753 	 -117.08 	 
C 	 -124.597 	 26.8023 	 -118.356 	 
H 	 -125.604 	 26.5041 	 -118.785 	 
H 	 -124.402 	 26.0884 	 -117.555 	 
C 	 -123.68 	 26.5573 	 -119.537 	 
H 	 -122.714 	 26.9897 	 -119.382 	 
H 	 -123.607 	 25.4802 	 -119.592 	 
C 	 -124.273 	 27.1023 	 -120.882 	 
H 	 -125.075 	 26.4327 	 -121.187 	 
H 	 -124.691 	 28.1349 	 -120.823 	 
H 	 -123.529 	 27.0518 	 -121.684 	 
S 	 -122.596 	 32.551 	 -116.692 	 
C 	 -121.124 	 32.8262 	 -115.663 	 
C 	 -120.869 	 31.6879 	 -114.918 	 
C 	 -121.819 	 30.6365 	 -115.094 	 
C 	 -122.72 	 30.9136 	 -116.077 	 
H 	 -120.012 	 31.6711 	 -114.308 	 
C 	 -121.637 	 29.2837 	 -114.527 	 
H 	 -122.547 	 28.6985 	 -114.753 	 
H 	 -121.539 	 29.5322 	 -113.511 	 
C 	 -120.409 	 28.5164 	 -115.024 	 
H 	 -119.53 	 29.1003 	 -114.909 	 
H 	 -120.492 	 28.3063 	 -116.144 	 
C 	 -120.093 	 27.2401 	 -114.24 	 
H 	 -119.29 	 26.732 	 -114.715 	 
H 	 -120.95 	 26.5254 	 -114.183 	 
H 	 -119.818 	 27.583 	 -113.215 	 
H 	 -126.672 	 28.691 	 -118.129 	 
H 	 -120.544 	 33.7532 	 -115.556 	 
