34

S 	 -101.205 	 12.8076 	 -121.526 	 
C 	 -99.7721 	 13.8527 	 -121.64 	 
C 	 -99.7075 	 14.7731 	 -120.616 	 
C 	 -100.858 	 14.6385 	 -119.779 	 
C 	 -101.712 	 13.5674 	 -120.006 	 
H 	 -101.111 	 15.42 	 -119.103 	 
C 	 -98.6597 	 15.7948 	 -120.339 	 
H 	 -98.5857 	 16.5394 	 -121.205 	 
H 	 -97.7096 	 15.2175 	 -120.282 	 
C 	 -98.7678 	 16.6274 	 -119.068 	 
H 	 -99.6245 	 17.3156 	 -119.224 	 
H 	 -98.9255 	 15.9233 	 -118.251 	 
C 	 -97.504 	 17.4272 	 -118.811 	 
H 	 -96.6218 	 16.8453 	 -118.81 	 
H 	 -97.44 	 18.1353 	 -119.669 	 
H 	 -97.6901 	 17.9421 	 -117.881 	 
S 	 -104.363 	 13.4705 	 -120.595 	 
C 	 -105.563 	 13.4686 	 -119.236 	 
C 	 -104.942 	 13.2797 	 -118.023 	 
C 	 -103.492 	 13.2244 	 -118.087 	 
C 	 -103.001 	 13.2929 	 -119.394 	 
H 	 -105.394 	 13.2227 	 -117.059 	 
C 	 -102.615 	 12.9827 	 -116.874 	 
H 	 -103 	 13.5813 	 -116.072 	 
H 	 -101.563 	 13.2322 	 -116.924 	 
C 	 -102.778 	 11.5058 	 -116.354 	 
H 	 -102.555 	 10.7702 	 -117.089 	 
H 	 -103.865 	 11.4169 	 -116.069 	 
C 	 -101.931 	 11.0839 	 -115.197 	 
H 	 -100.888 	 11.2159 	 -115.428 	 
H 	 -101.983 	 10.0387 	 -114.946 	 
H 	 -102.205 	 11.6503 	 -114.384 	 
H 	 -98.9443 	 13.6428 	 -122.288 	 
H 	 -106.583 	 13.7826 	 -119.197 	 
