34

S 	 -78.19 	 -5.19931 	 1.77726 	 
C 	 -77.0268 	 -4.85205 	 0.501238 	 
C 	 -76.687 	 -5.92006 	 -0.263902 	 
C 	 -77.4197 	 -7.07042 	 0.192701 	 
C 	 -78.1431 	 -6.8849 	 1.35557 	 
H 	 -77.3227 	 -8.08984 	 -0.110785 	 
C 	 -75.6763 	 -5.99251 	 -1.40936 	 
H 	 -75.5766 	 -5.00321 	 -1.71503 	 
H 	 -76.1273 	 -6.38557 	 -2.23212 	 
C 	 -74.3598 	 -6.55512 	 -0.89912 	 
H 	 -73.5739 	 -6.24421 	 -1.56513 	 
H 	 -73.9784 	 -6.10796 	 0.0383829 	 
C 	 -74.3398 	 -8.07456 	 -0.635804 	 
H 	 -74.9926 	 -8.5381 	 0.115173 	 
H 	 -74.4238 	 -8.61811 	 -1.60643 	 
H 	 -73.2836 	 -8.27845 	 -0.341292 	 
S 	 -80.4936 	 -7.43192 	 2.58266 	 
C 	 -80.5562 	 -8.66978 	 3.87325 	 
C 	 -79.4934 	 -9.55974 	 3.64976 	 
C 	 -78.5235 	 -9.09984 	 2.78249 	 
C 	 -78.7835 	 -7.88151 	 2.22119 	 
H 	 -79.4816 	 -10.4387 	 4.21913 	 
C 	 -77.3112 	 -9.94033 	 2.4007 	 
H 	 -76.7831 	 -9.42663 	 1.59608 	 
H 	 -77.6779 	 -10.8169 	 1.95478 	 
C 	 -76.3083 	 -10.4418 	 3.48539 	 
H 	 -76.7869 	 -11.0771 	 4.28373 	 
H 	 -75.8614 	 -9.56279 	 3.9595 	 
C 	 -75.259 	 -11.3643 	 2.87805 	 
H 	 -74.8758 	 -11.9235 	 3.70769 	 
H 	 -74.4374 	 -10.8489 	 2.55247 	 
H 	 -75.7557 	 -11.98 	 2.08833 	 
H 	 -76.6908 	 -3.83947 	 0.265176 	 
H 	 -81.3759 	 -8.91668 	 4.52128 	 
