34

S 	 0.126281 	 -24.0498 	 -112.309 	 
C 	 -0.846723 	 -25.1439 	 -113.333 	 
C 	 -2.14287 	 -25.0234 	 -113.017 	 
C 	 -2.30588 	 -24.4325 	 -111.712 	 
C 	 -1.1943 	 -23.9478 	 -111.131 	 
H 	 -3.19183 	 -24.2618 	 -111.269 	 
C 	 -3.3384 	 -25.5712 	 -113.772 	 
H 	 -3.98315 	 -26.2223 	 -113.198 	 
H 	 -3.01574 	 -26.2006 	 -114.624 	 
C 	 -4.23284 	 -24.4622 	 -114.326 	 
H 	 -4.80185 	 -24.084 	 -113.466 	 
H 	 -3.65242 	 -23.6871 	 -114.776 	 
C 	 -5.41356 	 -25.0359 	 -115.221 	 
H 	 -6.05634 	 -24.258 	 -115.645 	 
H 	 -5.02885 	 -25.3131 	 -116.209 	 
H 	 -6.01529 	 -25.8367 	 -114.756 	 
S 	 -0.521736 	 -21.6465 	 -109.948 	 
C 	 -0.703388 	 -21.4235 	 -108.258 	 
C 	 -1.09194 	 -22.5803 	 -107.628 	 
C 	 -1.34926 	 -23.6247 	 -108.51 	 
C 	 -1.00657 	 -23.3378 	 -109.802 	 
H 	 -1.25167 	 -22.6953 	 -106.505 	 
C 	 -1.86775 	 -24.9895 	 -108.027 	 
H 	 -2.63092 	 -25.3145 	 -108.71 	 
H 	 -2.47153 	 -24.8638 	 -107.128 	 
C 	 -0.795991 	 -26.0557 	 -107.87 	 
H 	 -0.253387 	 -25.9838 	 -106.87 	 
H 	 0.0748576 	 -25.9784 	 -108.551 	 
C 	 -1.33358 	 -27.4429 	 -108.028 	 
H 	 -0.653513 	 -28.2626 	 -107.654 	 
H 	 -1.69339 	 -27.6657 	 -109.047 	 
H 	 -2.23783 	 -27.4326 	 -107.336 	 
H 	 -0.438065 	 -25.7004 	 -114.155 	 
H 	 -0.407505 	 -20.5824 	 -107.659 	 
