34

S 	 -114.308 	 20.7578 	 -114.445 	 
C 	 -115.924 	 21.38 	 -114.999 	 
C 	 -116.905 	 20.4338 	 -114.667 	 
C 	 -116.38 	 19.3815 	 -113.93 	 
C 	 -115.057 	 19.3904 	 -113.673 	 
H 	 -116.935 	 18.5266 	 -113.527 	 
C 	 -118.324 	 20.5917 	 -114.928 	 
H 	 -118.307 	 20.1593 	 -115.92 	 
H 	 -118.419 	 21.6656 	 -115.11 	 
C 	 -119.367 	 20.1143 	 -113.912 	 
H 	 -119.06 	 19.0589 	 -113.788 	 
H 	 -119.115 	 20.4928 	 -112.879 	 
C 	 -120.822 	 20.2118 	 -114.3 	 
H 	 -120.94 	 21.1134 	 -114.793 	 
H 	 -121.261 	 19.4713 	 -115.001 	 
H 	 -121.397 	 20.1812 	 -113.399 	 
S 	 -113.22 	 19.1186 	 -111.731 	 
C 	 -112.699 	 17.594 	 -111.133 	 
C 	 -113.34 	 16.577 	 -111.845 	 
C 	 -114.296 	 17.038 	 -112.762 	 
C 	 -114.267 	 18.4154 	 -112.941 	 
H 	 -113.271 	 15.5672 	 -111.571 	 
C 	 -115.001 	 16.1668 	 -113.711 	 
H 	 -115.868 	 16.6188 	 -114.021 	 
H 	 -115.189 	 15.2478 	 -113.165 	 
C 	 -114.278 	 15.5984 	 -114.94 	 
H 	 -114.944 	 14.8831 	 -115.452 	 
H 	 -113.435 	 14.976 	 -114.568 	 
C 	 -113.601 	 16.6591 	 -115.857 	 
H 	 -113.042 	 16.1874 	 -116.623 	 
H 	 -112.883 	 17.2743 	 -115.295 	 
H 	 -114.412 	 17.126 	 -116.397 	 
H 	 -116.101 	 22.3081 	 -115.487 	 
H 	 -111.99 	 17.3178 	 -110.446 	 
