34

S 	 -91.5043 	 -34.8329 	 -55.9868 	 
C 	 -92.1948 	 -36.2435 	 -55.1967 	 
C 	 -93.4395 	 -35.9791 	 -54.7488 	 
C 	 -93.9201 	 -34.708 	 -55.1269 	 
C 	 -92.9982 	 -33.9594 	 -55.8057 	 
H 	 -94.8923 	 -34.2001 	 -54.9043 	 
C 	 -94.2325 	 -37.1193 	 -54.0305 	 
H 	 -95.0338 	 -36.6532 	 -53.4891 	 
H 	 -93.5776 	 -37.4294 	 -53.1736 	 
C 	 -94.6127 	 -38.3687 	 -54.8589 	 
H 	 -95.0219 	 -37.9613 	 -55.8289 	 
H 	 -93.7355 	 -38.924 	 -55.1598 	 
C 	 -95.5334 	 -39.253 	 -53.9829 	 
H 	 -95.7799 	 -40.0939 	 -54.5997 	 
H 	 -95.0196 	 -39.4313 	 -53.0415 	 
H 	 -96.4676 	 -38.8287 	 -53.7111 	 
S 	 -91.7609 	 -31.6031 	 -56.1894 	 
C 	 -92.4884 	 -30.2276 	 -56.9948 	 
C 	 -93.8285 	 -30.5124 	 -57.228 	 
C 	 -94.1484 	 -31.8726 	 -56.9224 	 
C 	 -93.107 	 -32.6052 	 -56.3567 	 
H 	 -94.5396 	 -29.8068 	 -57.6141 	 
C 	 -95.553 	 -32.2685 	 -57.1967 	 
H 	 -95.4867 	 -33.3569 	 -57.3105 	 
H 	 -95.9257 	 -31.8965 	 -58.1202 	 
C 	 -96.4922 	 -32.1153 	 -55.9638 	 
H 	 -96.799 	 -31.0975 	 -55.8457 	 
H 	 -95.9522 	 -32.3905 	 -55.0453 	 
C 	 -97.6851 	 -33.1002 	 -56.0383 	 
H 	 -98.0647 	 -33.2306 	 -57.0695 	 
H 	 -98.5094 	 -32.9213 	 -55.3876 	 
H 	 -97.3428 	 -34.1169 	 -55.7122 	 
H 	 -91.8371 	 -37.2639 	 -55.136 	 
H 	 -91.9915 	 -29.2989 	 -57.1584 	 
