34

S 	 -38.1579 	 18.8218 	 14.4687 	 
C 	 -39.8794 	 18.5467 	 14.657 	 
C 	 -40.2516 	 19.1504 	 15.846 	 
C 	 -39.3212 	 19.9691 	 16.4489 	 
C 	 -38.0932 	 20.0935 	 15.7953 	 
H 	 -39.5031 	 20.4724 	 17.3738 	 
C 	 -41.7155 	 19.0473 	 16.3909 	 
H 	 -42.2792 	 19.3878 	 15.5075 	 
H 	 -41.9258 	 19.7935 	 17.1413 	 
C 	 -41.9794 	 17.6166 	 16.8536 	 
H 	 -41.9159 	 17.0108 	 15.8975 	 
H 	 -41.1348 	 17.2516 	 17.5469 	 
C 	 -43.4357 	 17.3824 	 17.3708 	 
H 	 -44.2167 	 17.436 	 16.5692 	 
H 	 -43.5217 	 16.4109 	 17.9372 	 
H 	 -43.6222 	 18.1794 	 18.0946 	 
S 	 -35.4205 	 20.2199 	 15.5672 	 
C 	 -34.4689 	 21.6368 	 15.9014 	 
C 	 -35.287 	 22.6335 	 16.2882 	 
C 	 -36.6894 	 22.2656 	 16.3477 	 
C 	 -36.9075 	 20.9248 	 16.0535 	 
H 	 -34.9615 	 23.6495 	 16.4391 	 
C 	 -37.7225 	 23.2489 	 16.6727 	 
H 	 -37.6184 	 23.5008 	 17.7061 	 
H 	 -38.6772 	 22.7513 	 16.5467 	 
C 	 -37.626 	 24.569 	 15.8804 	 
H 	 -36.697 	 25.1767 	 16.1011 	 
H 	 -38.4993 	 25.2365 	 16.0478 	 
C 	 -37.5067 	 24.3404 	 14.359 	 
H 	 -38.4658 	 23.9138 	 14.0553 	 
H 	 -36.7199 	 23.7313 	 13.997 	 
H 	 -37.437 	 25.2837 	 13.7767 	 
H 	 -40.5044 	 17.9806 	 14.0138 	 
H 	 -33.4195 	 21.7037 	 15.9276 	 
