34

S 	 -122.966 	 66.6895 	 -41.9124 	 
C 	 -123.246 	 68.4131 	 -42.0315 	 
C 	 -122.064 	 69.1063 	 -42.044 	 
C 	 -120.893 	 68.27 	 -41.7892 	 
C 	 -121.202 	 66.9511 	 -42.0948 	 
H 	 -119.893 	 68.592 	 -41.5751 	 
C 	 -121.991 	 70.5897 	 -41.9441 	 
H 	 -121.679 	 70.8386 	 -40.9368 	 
H 	 -122.961 	 71.0482 	 -41.9564 	 
C 	 -120.998 	 71.1865 	 -42.9274 	 
H 	 -120.004 	 70.8106 	 -42.7579 	 
H 	 -121.322 	 71.0205 	 -44.0088 	 
C 	 -121.107 	 72.763 	 -42.8452 	 
H 	 -120.631 	 73.3086 	 -43.6048 	 
H 	 -122.079 	 73.1258 	 -42.651 	 
H 	 -120.621 	 73.2203 	 -41.9876 	 
S 	 -119.552 	 65.3567 	 -40.4523 	 
C 	 -118.121 	 64.6215 	 -41.2101 	 
C 	 -118.273 	 64.6635 	 -42.5602 	 
C 	 -119.472 	 65.3035 	 -42.9979 	 
C 	 -120.213 	 65.8623 	 -41.9914 	 
H 	 -117.402 	 64.2484 	 -43.1228 	 
C 	 -119.718 	 65.6004 	 -44.4597 	 
H 	 -120.672 	 66.1343 	 -44.747 	 
H 	 -119.772 	 64.6659 	 -45.0346 	 
C 	 -118.575 	 66.3464 	 -45.2549 	 
H 	 -118.794 	 66.5505 	 -46.3305 	 
H 	 -117.661 	 65.7141 	 -45.2207 	 
C 	 -118.172 	 67.6813 	 -44.6062 	 
H 	 -117.822 	 67.5152 	 -43.5655 	 
H 	 -118.975 	 68.3932 	 -44.5463 	 
H 	 -117.359 	 68.2725 	 -45.1537 	 
H 	 -124.236 	 68.7107 	 -42.3568 	 
H 	 -117.298 	 64.1125 	 -40.6862 	 
