34

S 	 27.4842 	 -26.2008 	 -129.022 	 
C 	 25.9287 	 -26.1008 	 -128.361 	 
C 	 25.1984 	 -27.2787 	 -128.581 	 
C 	 26.0383 	 -28.3018 	 -129.171 	 
C 	 27.3382 	 -27.8658 	 -129.392 	 
H 	 25.7411 	 -29.277 	 -129.412 	 
C 	 23.6912 	 -27.5188 	 -128.26 	 
H 	 23.4477 	 -28.5512 	 -128.469 	 
H 	 23.114 	 -26.89 	 -128.962 	 
C 	 23.3651 	 -27.1074 	 -126.889 	 
H 	 23.7504 	 -27.8693 	 -126.221 	 
H 	 23.8842 	 -26.1479 	 -126.783 	 
C 	 21.8263 	 -27.1166 	 -126.687 	 
H 	 21.2724 	 -28.0731 	 -126.941 	 
H 	 21.6225 	 -26.8773 	 -125.574 	 
H 	 21.3402 	 -26.2054 	 -127.151 	 
S 	 29.6318 	 -28.0391 	 -130.82 	 
C 	 30.6154 	 -29.4527 	 -130.748 	 
C 	 30.0056 	 -30.4563 	 -129.995 	 
C 	 28.7559 	 -30.0065 	 -129.404 	 
C 	 28.4381 	 -28.732 	 -129.769 	 
H 	 30.4043 	 -31.4348 	 -130.013 	 
C 	 27.8814 	 -30.8802 	 -128.434 	 
H 	 26.8703 	 -30.9935 	 -128.8 	 
H 	 27.6575 	 -30.1679 	 -127.597 	 
C 	 28.4918 	 -32.2216 	 -127.959 	 
H 	 29.5767 	 -32.0179 	 -127.692 	 
H 	 28.6181 	 -32.9162 	 -128.761 	 
C 	 27.7061 	 -32.8871 	 -126.853 	 
H 	 28.3523 	 -33.6572 	 -126.334 	 
H 	 26.7346 	 -33.3775 	 -127.133 	 
H 	 27.5132 	 -32.1342 	 -126.117 	 
H 	 25.4782 	 -25.1718 	 -128.094 	 
H 	 31.5633 	 -29.5107 	 -131.216 	 
