34

S 	 -127.672 	 25.0393 	 -112.41 	 
C 	 -126.533 	 24.3933 	 -113.645 	 
C 	 -125.437 	 25.1993 	 -113.703 	 
C 	 -125.495 	 26.3285 	 -112.773 	 
C 	 -126.663 	 26.4344 	 -112.055 	 
H 	 -124.746 	 27.0541 	 -112.593 	 
C 	 -124.189 	 24.9357 	 -114.621 	 
H 	 -124.221 	 25.795 	 -115.341 	 
H 	 -124.372 	 24.061 	 -115.236 	 
C 	 -122.844 	 24.8426 	 -113.945 	 
H 	 -122.624 	 25.8119 	 -113.499 	 
H 	 -122.904 	 24.1377 	 -113.165 	 
C 	 -121.808 	 24.3504 	 -114.997 	 
H 	 -120.803 	 24.539 	 -114.556 	 
H 	 -121.895 	 23.302 	 -115.299 	 
H 	 -121.743 	 24.9665 	 -115.907 	 
S 	 -128.417 	 28.5125 	 -112.187 	 
C 	 -128.393 	 29.7531 	 -110.948 	 
C 	 -127.403 	 29.4891 	 -109.988 	 
C 	 -126.578 	 28.3268 	 -110.32 	 
C 	 -127.146 	 27.6288 	 -111.359 	 
H 	 -127.384 	 30.1017 	 -109.135 	 
C 	 -125.449 	 27.8719 	 -109.466 	 
H 	 -124.991 	 28.7126 	 -108.879 	 
H 	 -124.734 	 27.3491 	 -110.224 	 
C 	 -125.924 	 26.7694 	 -108.497 	 
H 	 -126.525 	 25.9269 	 -109.014 	 
H 	 -126.56 	 27.2406 	 -107.715 	 
C 	 -124.759 	 26.102 	 -107.688 	 
H 	 -124.275 	 25.2656 	 -108.222 	 
H 	 -125.105 	 25.6621 	 -106.78 	 
H 	 -124.008 	 26.7115 	 -107.243 	 
H 	 -126.721 	 23.6331 	 -114.359 	 
H 	 -129.196 	 30.4414 	 -110.779 	 
