34

S 	 -137.817 	 14.2326 	 -0.814348 	 
C 	 -139.034 	 13.0879 	 -0.835371 	 
C 	 -138.726 	 11.8456 	 -0.281692 	 
C 	 -137.371 	 11.9366 	 0.2448 	 
C 	 -136.678 	 13.0824 	 -0.107054 	 
H 	 -136.898 	 11.1557 	 0.857126 	 
C 	 -139.742 	 10.752 	 -0.186937 	 
H 	 -139.751 	 10.1452 	 -1.07179 	 
H 	 -140.792 	 11.0986 	 0.027963 	 
C 	 -139.472 	 9.77499 	 1.01089 	 
H 	 -138.427 	 9.51997 	 0.88736 	 
H 	 -139.512 	 10.3185 	 2.09623 	 
C 	 -140.294 	 8.5485 	 0.98577 	 
H 	 -139.729 	 7.89796 	 1.63067 	 
H 	 -141.275 	 8.78244 	 1.34468 	 
H 	 -140.283 	 8.27312 	 -0.0621026 	 
S 	 -134.922 	 15.2608 	 0.491292 	 
C 	 -133.256 	 14.8709 	 0.497308 	 
C 	 -133.074 	 13.5625 	 0.574049 	 
C 	 -134.184 	 12.7192 	 0.32964 	 
C 	 -135.304 	 13.4701 	 0.247744 	 
H 	 -132.056 	 13.1568 	 0.825296 	 
C 	 -134.148 	 11.1775 	 0.193483 	 
H 	 -133.131 	 10.9915 	 -0.219847 	 
H 	 -134.817 	 10.7335 	 -0.531234 	 
C 	 -134.219 	 10.501 	 1.64178 	 
H 	 -135.157 	 10.811 	 2.18872 	 
H 	 -133.344 	 10.9149 	 2.18019 	 
C 	 -134.098 	 9.00265 	 1.65681 	 
H 	 -133.016 	 8.77052 	 1.46997 	 
H 	 -134.593 	 8.53317 	 0.816424 	 
H 	 -134.338 	 8.63953 	 2.70542 	 
H 	 -139.96 	 13.2845 	 -1.24811 	 
H 	 -132.404 	 15.5745 	 0.542917 	 
