34

S 	 -98.0818 	 49.07 	 -93.0252 	 
C 	 -97.476 	 47.522 	 -92.6502 	 
C 	 -96.7514 	 46.9757 	 -93.6391 	 
C 	 -96.5882 	 47.9246 	 -94.7696 	 
C 	 -97.2838 	 49.1191 	 -94.5833 	 
H 	 -95.9203 	 47.7158 	 -95.5706 	 
C 	 -96.1411 	 45.5886 	 -93.7327 	 
H 	 -96.5475 	 45.1219 	 -94.6297 	 
H 	 -96.5514 	 45.0397 	 -92.9106 	 
C 	 -94.5975 	 45.6069 	 -93.9111 	 
H 	 -94.2381 	 46.4089 	 -94.6177 	 
H 	 -94.0815 	 45.8954 	 -92.9829 	 
C 	 -94.1088 	 44.1568 	 -94.3272 	 
H 	 -94.3535 	 43.477 	 -93.5493 	 
H 	 -94.5578 	 43.7456 	 -95.2924 	 
H 	 -93.016 	 44.0841 	 -94.4404 	 
S 	 -97.6381 	 51.8038 	 -94.7269 	 
C 	 -97.6632 	 52.7005 	 -96.2579 	 
C 	 -97.3936 	 51.8501 	 -97.2691 	 
C 	 -97.19 	 50.4812 	 -96.8262 	 
C 	 -97.3277 	 50.2858 	 -95.4855 	 
H 	 -97.2749 	 52.1274 	 -98.3264 	 
C 	 -96.9145 	 49.3385 	 -97.8143 	 
H 	 -96.147 	 48.5628 	 -97.4972 	 
H 	 -96.5605 	 49.7662 	 -98.748 	 
C 	 -98.1886 	 48.558 	 -98.2653 	 
H 	 -98.6782 	 49.2516 	 -98.9617 	 
H 	 -98.9347 	 48.4687 	 -97.4229 	 
C 	 -97.8978 	 47.2284 	 -98.9651 	 
H 	 -97.1853 	 47.3436 	 -99.7496 	 
H 	 -98.9007 	 47.0161 	 -99.3645 	 
H 	 -97.5276 	 46.5027 	 -98.3042 	 
H 	 -97.8097 	 47.052 	 -91.7773 	 
H 	 -97.9423 	 53.7218 	 -96.3762 	 
