34

S 	 -54.5259 	 4.55303 	 -23.1445 	 
C 	 -53.4015 	 3.54157 	 -23.9476 	 
C 	 -53.6361 	 2.16067 	 -23.9067 	 
C 	 -54.8834 	 1.94197 	 -23.2068 	 
C 	 -55.3782 	 3.11374 	 -22.6517 	 
H 	 -55.3179 	 0.985962 	 -23.0181 	 
C 	 -52.7222 	 1.07692 	 -24.6048 	 
H 	 -51.8941 	 1.11586 	 -23.8845 	 
H 	 -52.3376 	 1.45985 	 -25.5834 	 
C 	 -53.2748 	 -0.312517 	 -24.8164 	 
H 	 -53.4856 	 -0.785936 	 -23.8713 	 
H 	 -54.0811 	 -0.229952 	 -25.4872 	 
C 	 -52.2709 	 -1.38319 	 -25.4291 	 
H 	 -51.8652 	 -2.09744 	 -24.6826 	 
H 	 -52.8627 	 -1.98302 	 -26.1268 	 
H 	 -51.4977 	 -0.914348 	 -26.0282 	 
S 	 -57.9246 	 3.89723 	 -22.3648 	 
C 	 -58.6875 	 3.81373 	 -20.8258 	 
C 	 -57.9315 	 3.0485 	 -19.9493 	 
C 	 -56.6327 	 2.62726 	 -20.4615 	 
C 	 -56.5077 	 3.17296 	 -21.7797 	 
H 	 -58.3718 	 2.74439 	 -18.9749 	 
C 	 -55.7026 	 1.74815 	 -19.7509 	 
H 	 -54.7431 	 2.03966 	 -20.1205 	 
H 	 -55.9244 	 0.729618 	 -19.9512 	 
C 	 -55.6592 	 1.9194 	 -18.1954 	 
H 	 -56.6589 	 1.7248 	 -17.8259 	 
H 	 -55.2874 	 2.92992 	 -18.123 	 
C 	 -54.672 	 0.974302 	 -17.6416 	 
H 	 -54.4368 	 1.30681 	 -16.5972 	 
H 	 -53.7687 	 1.00096 	 -18.2372 	 
H 	 -54.9792 	 -0.0898214 	 -17.5418 	 
H 	 -52.43 	 3.81293 	 -24.3591 	 
H 	 -59.7698 	 4.05455 	 -20.5362 	 
