34

S 	 -107.158 	 43.3394 	 -9.59325 	 
C 	 -106.859 	 42.8119 	 -7.97943 	 
C 	 -107.954 	 43.0318 	 -7.12767 	 
C 	 -109.079 	 43.4333 	 -7.96232 	 
C 	 -108.807 	 43.6057 	 -9.27355 	 
H 	 -110.123 	 43.5643 	 -7.67033 	 
C 	 -108.001 	 42.7304 	 -5.63961 	 
H 	 -107.308 	 41.9582 	 -5.27596 	 
H 	 -109.004 	 42.3613 	 -5.454 	 
C 	 -107.891 	 43.9999 	 -4.7986 	 
H 	 -107.95 	 43.704 	 -3.70771 	 
H 	 -106.899 	 44.3884 	 -4.99567 	 
C 	 -108.939 	 45.0607 	 -5.06705 	 
H 	 -108.834 	 45.5268 	 -5.95394 	 
H 	 -110.021 	 44.7993 	 -4.96453 	 
H 	 -108.76 	 45.7433 	 -4.23289 	 
S 	 -109.75 	 42.9503 	 -11.7213 	 
C 	 -110.919 	 44.0183 	 -12.4203 	 
C 	 -111.403 	 44.9167 	 -11.5423 	 
C 	 -110.826 	 44.8634 	 -10.2647 	 
C 	 -109.794 	 43.9288 	 -10.2777 	 
H 	 -112.206 	 45.5829 	 -11.8788 	 
C 	 -111.044 	 45.8778 	 -9.20412 	 
H 	 -110.129 	 46.0034 	 -8.54048 	 
H 	 -111.753 	 45.47 	 -8.62239 	 
C 	 -111.502 	 47.3102 	 -9.72816 	 
H 	 -112.42 	 47.152 	 -10.1923 	 
H 	 -110.722 	 47.6018 	 -10.474 	 
C 	 -111.378 	 48.4527 	 -8.83458 	 
H 	 -110.491 	 48.3407 	 -8.28144 	 
H 	 -112.214 	 48.4767 	 -8.12779 	 
H 	 -111.4 	 49.3597 	 -9.50514 	 
H 	 -105.892 	 42.589 	 -7.83875 	 
H 	 -111.189 	 43.9922 	 -13.432 	 
