34

S 	 37.1604 	 -25.0113 	 -122.208 	 
C 	 37.0699 	 -24.2025 	 -123.777 	 
C 	 37.5 	 -24.9249 	 -124.85 	 
C 	 38.2774 	 -26.1199 	 -124.336 	 
C 	 38.2013 	 -26.249 	 -122.961 	 
H 	 38.8134 	 -26.8192 	 -125.013 	 
C 	 37.4895 	 -24.4703 	 -126.338 	 
H 	 36.7707 	 -23.6727 	 -126.352 	 
H 	 37.0124 	 -25.2176 	 -126.961 	 
C 	 38.8457 	 -24.019 	 -126.903 	 
H 	 39.4467 	 -24.8854 	 -127.15 	 
H 	 38.7336 	 -23.5043 	 -127.842 	 
C 	 39.6199 	 -23.095 	 -126.015 	 
H 	 40.5428 	 -22.7325 	 -126.523 	 
H 	 39.1525 	 -22.16 	 -125.977 	 
H 	 39.8315 	 -23.466 	 -125.003 	 
S 	 38.9872 	 -26.6326 	 -120.344 	 
C 	 40.2169 	 -27.7682 	 -119.924 	 
C 	 40.6412 	 -28.3921 	 -121.061 	 
C 	 39.8583 	 -28.1572 	 -122.224 	 
C 	 38.9339 	 -27.1269 	 -122.062 	 
H 	 41.4738 	 -29.0815 	 -120.947 	 
C 	 40.2454 	 -28.8077 	 -123.602 	 
H 	 39.356 	 -28.8219 	 -124.317 	 
H 	 40.5201 	 -29.9025 	 -123.596 	 
C 	 41.4598 	 -28.1685 	 -124.25 	 
H 	 42.3054 	 -28.1928 	 -123.523 	 
H 	 41.1653 	 -27.1271 	 -124.41 	 
C 	 41.9444 	 -28.8478 	 -125.624 	 
H 	 41.8656 	 -29.9271 	 -125.599 	 
H 	 42.9985 	 -28.6987 	 -125.723 	 
H 	 41.3894 	 -28.517 	 -126.564 	 
H 	 36.556 	 -23.2577 	 -123.899 	 
H 	 40.6649 	 -27.8662 	 -118.965 	 
