34

S 	 -100.9 	 12.0531 	 -122.624 	 
C 	 -99.436 	 12.9302 	 -123 	 
C 	 -99.1877 	 13.9532 	 -122.11 	 
C 	 -100.316 	 14.23 	 -121.305 	 
C 	 -101.226 	 13.2249 	 -121.337 	 
H 	 -100.33 	 15.0593 	 -120.606 	 
C 	 -97.8885 	 14.6962 	 -122.133 	 
H 	 -97.1529 	 14.1154 	 -122.755 	 
H 	 -97.521 	 14.6253 	 -121.083 	 
C 	 -97.9309 	 16.2341 	 -122.536 	 
H 	 -98.4433 	 16.3596 	 -123.456 	 
H 	 -98.5487 	 16.8017 	 -121.844 	 
C 	 -96.6425 	 16.9853 	 -122.591 	 
H 	 -95.8861 	 16.3686 	 -122.958 	 
H 	 -96.7026 	 17.8804 	 -123.091 	 
H 	 -96.3128 	 17.2053 	 -121.55 	 
S 	 -103.911 	 13.0422 	 -121.569 	 
C 	 -104.896 	 13.3504 	 -120.125 	 
C 	 -104.118 	 13.445 	 -118.995 	 
C 	 -102.735 	 13.2695 	 -119.252 	 
C 	 -102.49 	 13.173 	 -120.616 	 
H 	 -104.454 	 13.6523 	 -118.014 	 
C 	 -101.786 	 13.4414 	 -118.166 	 
H 	 -101.864 	 14.4276 	 -117.697 	 
H 	 -100.849 	 13.4076 	 -118.642 	 
C 	 -101.867 	 12.3146 	 -117.077 	 
H 	 -101.502 	 11.4048 	 -117.522 	 
H 	 -102.853 	 12.2758 	 -116.684 	 
C 	 -100.854 	 12.6487 	 -115.988 	 
H 	 -99.8569 	 12.8559 	 -116.358 	 
H 	 -100.843 	 11.8949 	 -115.179 	 
H 	 -101.151 	 13.59 	 -115.55 	 
H 	 -98.7366 	 12.6254 	 -123.753 	 
H 	 -105.905 	 13.4975 	 -120.135 	 
