34

S 	 -124.844 	 57.8563 	 -60.3164 	 
C 	 -124.138 	 56.5783 	 -61.2106 	 
C 	 -124.475 	 55.3853 	 -60.5965 	 
C 	 -125.186 	 55.5315 	 -59.394 	 
C 	 -125.528 	 56.8095 	 -59.0822 	 
H 	 -125.489 	 54.6576 	 -58.7784 	 
C 	 -124.017 	 53.9597 	 -61.0495 	 
H 	 -123.338 	 54.1734 	 -61.8631 	 
H 	 -124.863 	 53.4228 	 -61.5179 	 
C 	 -123.264 	 53.0611 	 -60.159 	 
H 	 -123.836 	 52.7403 	 -59.293 	 
H 	 -122.996 	 52.1062 	 -60.6614 	 
C 	 -122.05 	 53.6701 	 -59.5496 	 
H 	 -121.293 	 53.9817 	 -60.2433 	 
H 	 -122.248 	 54.6321 	 -59.0795 	 
H 	 -121.53 	 53.0297 	 -58.8209 	 
S 	 -125.025 	 58.1195 	 -56.8362 	 
C 	 -126.207 	 58.121 	 -55.5393 	 
C 	 -127.44 	 57.6358 	 -55.9192 	 
C 	 -127.461 	 57.1913 	 -57.2681 	 
C 	 -126.179 	 57.2944 	 -57.8531 	 
H 	 -128.361 	 57.7171 	 -55.341 	 
C 	 -128.781 	 56.7496 	 -57.96 	 
H 	 -129.084 	 57.3048 	 -58.8638 	 
H 	 -129.613 	 56.949 	 -57.2474 	 
C 	 -128.729 	 55.2485 	 -58.2694 	 
H 	 -128.013 	 55.0253 	 -59.0465 	 
H 	 -129.727 	 54.9539 	 -58.6879 	 
C 	 -128.608 	 54.3053 	 -57.0515 	 
H 	 -128.615 	 53.2974 	 -57.4565 	 
H 	 -129.487 	 54.3675 	 -56.451 	 
H 	 -127.723 	 54.5759 	 -56.5002 	 
H 	 -123.498 	 56.8154 	 -62.1157 	 
H 	 -126 	 58.6309 	 -54.635 	 
