34

S 	 -108.755 	 45.2088 	 -8.0501 	 
C 	 -110.022 	 46.1214 	 -7.22167 	 
C 	 -110.965 	 46.5097 	 -8.13463 	 
C 	 -110.589 	 46.234 	 -9.51677 	 
C 	 -109.521 	 45.4162 	 -9.60666 	 
H 	 -111.169 	 46.4717 	 -10.3586 	 
C 	 -112.309 	 47.1392 	 -7.88756 	 
H 	 -112.999 	 46.3247 	 -7.54441 	 
H 	 -112.789 	 47.3978 	 -8.83146 	 
C 	 -112.297 	 48.2581 	 -6.87077 	 
H 	 -113.333 	 48.3885 	 -6.44776 	 
H 	 -111.715 	 48.0291 	 -6.02687 	 
C 	 -111.713 	 49.6081 	 -7.43623 	 
H 	 -110.676 	 49.5481 	 -7.85306 	 
H 	 -112.356 	 49.9301 	 -8.31526 	 
H 	 -111.778 	 50.5123 	 -6.77472 	 
S 	 -108.381 	 43.0601 	 -10.3338 	 
C 	 -108.107 	 42.7132 	 -11.9959 	 
C 	 -108.328 	 43.8091 	 -12.8173 	 
C 	 -108.853 	 44.896 	 -12.0982 	 
C 	 -108.954 	 44.6477 	 -10.7452 	 
H 	 -108.089 	 43.7107 	 -13.8889 	 
C 	 -109.169 	 46.2016 	 -12.7833 	 
H 	 -108.484 	 46.3692 	 -13.5789 	 
H 	 -108.915 	 46.8565 	 -11.9945 	 
C 	 -110.614 	 46.3319 	 -13.3117 	 
H 	 -111.277 	 46.1567 	 -12.4307 	 
H 	 -110.927 	 45.6056 	 -14.0766 	 
C 	 -110.865 	 47.741 	 -13.7743 	 
H 	 -111.916 	 47.8703 	 -13.6467 	 
H 	 -110.586 	 47.9192 	 -14.8096 	 
H 	 -110.392 	 48.504 	 -13.1239 	 
H 	 -110.131 	 46.3471 	 -6.18195 	 
H 	 -107.71 	 41.7663 	 -12.3503 	 
