34

S 	 -60.2494 	 13.7463 	 -91.3327 	 
C 	 -60.5941 	 14.7692 	 -92.7278 	 
C 	 -60.427 	 16.1104 	 -92.3606 	 
C 	 -60.3674 	 16.236 	 -90.8877 	 
C 	 -60.1101 	 15.0586 	 -90.2231 	 
H 	 -60.4708 	 17.102 	 -90.2497 	 
C 	 -60.8786 	 17.3611 	 -93.1424 	 
H 	 -60.6832 	 17.2275 	 -94.1507 	 
H 	 -60.1733 	 18.1392 	 -92.8547 	 
C 	 -62.3123 	 17.8028 	 -92.9741 	 
H 	 -62.475 	 18.0969 	 -91.9539 	 
H 	 -62.5585 	 18.6787 	 -93.5742 	 
C 	 -63.343 	 16.7094 	 -93.2318 	 
H 	 -63.2548 	 16.2488 	 -94.2219 	 
H 	 -63.152 	 15.8812 	 -92.539 	 
H 	 -64.361 	 17.0574 	 -93.238 	 
S 	 -61.0667 	 13.7062 	 -88.0339 	 
C 	 -60.6779 	 14.3347 	 -86.45 	 
C 	 -59.6974 	 15.2952 	 -86.5211 	 
C 	 -59.3654 	 15.7133 	 -87.824 	 
C 	 -60.0169 	 14.9272 	 -88.7782 	 
H 	 -59.249 	 15.5537 	 -85.5785 	 
C 	 -58.3095 	 16.7653 	 -88.1737 	 
H 	 -57.8905 	 16.5932 	 -89.1796 	 
H 	 -57.431 	 16.6413 	 -87.5064 	 
C 	 -58.5657 	 18.2674 	 -87.9259 	 
H 	 -58.6529 	 18.4285 	 -86.8688 	 
H 	 -59.5436 	 18.5631 	 -88.2866 	 
C 	 -57.4218 	 19.0347 	 -88.5067 	 
H 	 -57.4478 	 20.0112 	 -88.0972 	 
H 	 -57.5206 	 18.9927 	 -89.5836 	 
H 	 -56.3813 	 18.7159 	 -88.3114 	 
H 	 -61.0643 	 14.3995 	 -93.6402 	 
H 	 -61.0415 	 14.106 	 -85.4726 	 
