34

S 	 -137.236 	 2.80257 	 5.0088 	 
C 	 -136.428 	 1.42151 	 4.25461 	 
C 	 -135.293 	 1.77237 	 3.59275 	 
C 	 -135.009 	 3.17057 	 3.73224 	 
C 	 -135.891 	 3.86825 	 4.47914 	 
H 	 -134.156 	 3.65763 	 3.32226 	 
C 	 -134.405 	 0.856959 	 2.85838 	 
H 	 -134.274 	 -0.0943513 	 3.37727 	 
H 	 -133.392 	 1.34634 	 2.6722 	 
C 	 -134.873 	 0.495223 	 1.46464 	 
H 	 -133.942 	 0.0897719 	 1.01651 	 
H 	 -135.675 	 -0.259331 	 1.47771 	 
C 	 -135.305 	 1.62608 	 0.446288 	 
H 	 -136.126 	 2.29052 	 0.768077 	 
H 	 -134.452 	 2.21188 	 0.0536768 	 
H 	 -135.719 	 1.23139 	 -0.491414 	 
S 	 -136.024 	 6.37089 	 3.40028 	 
C 	 -135.779 	 7.74719 	 4.38304 	 
C 	 -135.474 	 7.41597 	 5.67895 	 
C 	 -135.621 	 5.98976 	 5.9296 	 
C 	 -135.873 	 5.29307 	 4.72382 	 
H 	 -135.221 	 8.2138 	 6.35312 	 
C 	 -135.449 	 5.37302 	 7.23656 	 
H 	 -135.483 	 4.2303 	 7.25873 	 
H 	 -136.12 	 5.8433 	 7.96432 	 
C 	 -134.033 	 5.57213 	 7.85188 	 
H 	 -133.975 	 5.3535 	 8.9132 	 
H 	 -133.856 	 6.69389 	 7.73287 	 
C 	 -132.913 	 4.89623 	 7.14198 	 
H 	 -132.68 	 3.88693 	 7.57719 	 
H 	 -131.945 	 5.42135 	 7.09084 	 
H 	 -133.28 	 4.72265 	 6.16149 	 
H 	 -136.732 	 0.434052 	 4.38441 	 
H 	 -135.829 	 8.78218 	 3.97011 	 
