34

S 	 -113.364 	 20.3501 	 -119.192 	 
C 	 -114.545 	 19.8372 	 -117.989 	 
C 	 -114.137 	 20.1376 	 -116.695 	 
C 	 -112.795 	 20.6782 	 -116.706 	 
C 	 -112.197 	 20.7506 	 -117.989 	 
H 	 -112.159 	 21.1442 	 -115.936 	 
C 	 -115.023 	 20.0126 	 -115.49 	 
H 	 -115.859 	 19.2508 	 -115.578 	 
H 	 -115.55 	 21.025 	 -115.531 	 
C 	 -114.417 	 19.9672 	 -114.085 	 
H 	 -113.755 	 20.9031 	 -113.917 	 
H 	 -115.178 	 20.2205 	 -113.394 	 
C 	 -113.668 	 18.732 	 -113.745 	 
H 	 -114.333 	 17.9472 	 -114.069 	 
H 	 -112.701 	 18.7142 	 -114.307 	 
H 	 -113.594 	 18.6269 	 -112.653 	 
S 	 -111.021 	 22.684 	 -119.504 	 
C 	 -109.28 	 22.8514 	 -119.52 	 
C 	 -108.689 	 21.9037 	 -118.693 	 
C 	 -109.682 	 21.0582 	 -118.017 	 
C 	 -110.956 	 21.3851 	 -118.345 	 
H 	 -107.617 	 21.8596 	 -118.705 	 
C 	 -109.126 	 20.0427 	 -117.034 	 
H 	 -108.349 	 19.3676 	 -117.376 	 
H 	 -109.986 	 19.4878 	 -116.845 	 
C 	 -108.527 	 20.5916 	 -115.668 	 
H 	 -107.569 	 21.0194 	 -115.988 	 
H 	 -108.29 	 19.7058 	 -115.021 	 
C 	 -109.344 	 21.6938 	 -114.959 	 
H 	 -109.566 	 22.4984 	 -115.703 	 
H 	 -108.661 	 22.2824 	 -114.234 	 
H 	 -110.255 	 21.365 	 -114.396 	 
H 	 -115.558 	 19.7162 	 -118.279 	 
H 	 -108.83 	 23.6509 	 -120.145 	 
