34

S 	 -110.883 	 68.2818 	 -10.3278 	 
C 	 -110.246 	 69.9169 	 -9.91242 	 
C 	 -109.087 	 70.194 	 -10.6815 	 
C 	 -108.743 	 69.0776 	 -11.5002 	 
C 	 -109.58 	 68.0205 	 -11.4914 	 
H 	 -107.885 	 69.013 	 -12.1504 	 
C 	 -108.201 	 71.4486 	 -10.5451 	 
H 	 -108.667 	 72.1658 	 -9.84735 	 
H 	 -108.396 	 72.0717 	 -11.4529 	 
C 	 -106.659 	 71.2764 	 -10.568 	 
H 	 -106.33 	 70.6299 	 -9.72021 	 
H 	 -106.28 	 70.6391 	 -11.4733 	 
C 	 -105.881 	 72.5604 	 -10.6123 	 
H 	 -106.074 	 73.1313 	 -9.70614 	 
H 	 -104.808 	 72.4155 	 -10.7815 	 
H 	 -106.368 	 73.2468 	 -11.3309 	 
S 	 -108.488 	 65.5445 	 -11.2635 	 
C 	 -108.697 	 64.4209 	 -12.5301 	 
C 	 -109.357 	 64.9179 	 -13.5963 	 
C 	 -109.663 	 66.307 	 -13.4533 	 
C 	 -109.317 	 66.7476 	 -12.197 	 
H 	 -109.507 	 64.17 	 -14.3425 	 
C 	 -110.276 	 67.1646 	 -14.475 	 
H 	 -110.302 	 66.7508 	 -15.4674 	 
H 	 -109.707 	 68.0889 	 -14.6097 	 
C 	 -111.748 	 67.5882 	 -14.2986 	 
H 	 -111.973 	 68.2576 	 -15.1194 	 
H 	 -111.805 	 68.1073 	 -13.3421 	 
C 	 -112.732 	 66.4656 	 -14.4315 	 
H 	 -112.663 	 66.1164 	 -15.465 	 
H 	 -113.774 	 66.8299 	 -14.3387 	 
H 	 -112.692 	 65.596 	 -13.7595 	 
H 	 -110.675 	 70.4973 	 -9.0742 	 
H 	 -108.38 	 63.3906 	 -12.576 	 
