34

S 	 26.7163 	 -7.54964 	 -118.747 	 
C 	 28.1049 	 -6.90807 	 -119.574 	 
C 	 29.1127 	 -6.44229 	 -118.674 	 
C 	 28.7585 	 -6.81266 	 -117.308 	 
C 	 27.5189 	 -7.46632 	 -117.137 	 
H 	 29.3736 	 -6.62254 	 -116.441 	 
C 	 30.4268 	 -5.78223 	 -119.029 	 
H 	 30.2978 	 -4.78235 	 -118.684 	 
H 	 30.4771 	 -5.79835 	 -120.103 	 
C 	 31.7098 	 -6.35801 	 -118.384 	 
H 	 32.4719 	 -5.67328 	 -118.501 	 
H 	 31.5043 	 -6.57636 	 -117.353 	 
C 	 32.2701 	 -7.61722 	 -119.071 	 
H 	 33.246 	 -7.80829 	 -118.773 	 
H 	 31.7026 	 -8.51439 	 -118.872 	 
H 	 32.3537 	 -7.49959 	 -120.101 	 
S 	 25.3565 	 -6.87103 	 -115.518 	 
C 	 25.4353 	 -7.42776 	 -113.823 	 
C 	 26.4768 	 -8.36165 	 -113.58 	 
C 	 27.3282 	 -8.42013 	 -114.735 	 
C 	 26.9035 	 -7.60937 	 -115.86 	 
H 	 26.742 	 -8.75574 	 -112.541 	 
C 	 28.4934 	 -9.37769 	 -114.789 	 
H 	 29.2758 	 -8.6527 	 -114.684 	 
H 	 28.5084 	 -9.83233 	 -115.756 	 
C 	 28.6655 	 -10.3183 	 -113.714 	 
H 	 27.923 	 -11.0545 	 -113.61 	 
H 	 28.7896 	 -9.73948 	 -112.758 	 
C 	 30.0258 	 -11.0783 	 -113.904 	 
H 	 30.91 	 -10.4861 	 -113.843 	 
H 	 30.0221 	 -11.6776 	 -114.829 	 
H 	 30.1287 	 -11.8386 	 -113.049 	 
H 	 28.1227 	 -6.67668 	 -120.643 	 
H 	 24.6978 	 -7.21491 	 -113.068 	 
