34

S 	 -104.42 	 23.9412 	 -117.45 	 
C 	 -105.759 	 25.0751 	 -117.345 	 
C 	 -105.436 	 26.3988 	 -117.577 	 
C 	 -104.048 	 26.4827 	 -117.773 	 
C 	 -103.345 	 25.2778 	 -117.812 	 
H 	 -103.495 	 27.4226 	 -117.978 	 
C 	 -106.281 	 27.6093 	 -117.534 	 
H 	 -106.899 	 27.7259 	 -118.473 	 
H 	 -105.693 	 28.4929 	 -117.478 	 
C 	 -107.135 	 27.905 	 -116.304 	 
H 	 -107.822 	 27.1334 	 -116.062 	 
H 	 -106.47 	 27.9708 	 -115.432 	 
C 	 -107.968 	 29.1345 	 -116.529 	 
H 	 -108.792 	 29.0617 	 -117.248 	 
H 	 -108.546 	 29.3817 	 -115.553 	 
H 	 -107.339 	 29.9997 	 -116.716 	 
S 	 -100.621 	 25.5689 	 -117.202 	 
C 	 -99.4564 	 25.1713 	 -118.455 	 
C 	 -100.118 	 24.6139 	 -119.536 	 
C 	 -101.535 	 24.5415 	 -119.416 	 
C 	 -101.992 	 25.122 	 -118.223 	 
H 	 -99.5275 	 24.3035 	 -120.357 	 
C 	 -102.365 	 24.0595 	 -120.66 	 
H 	 -102.085 	 24.5643 	 -121.645 	 
H 	 -103.38 	 24.3493 	 -120.483 	 
C 	 -102.449 	 22.5872 	 -120.974 	 
H 	 -102.881 	 22.1149 	 -120.084 	 
H 	 -101.507 	 22.2169 	 -121.189 	 
C 	 -103.41 	 22.2669 	 -122.171 	 
H 	 -103.078 	 22.5612 	 -123.169 	 
H 	 -104.398 	 22.6153 	 -122.047 	 
H 	 -103.457 	 21.1721 	 -122.136 	 
H 	 -106.777 	 24.7726 	 -117.029 	 
H 	 -98.3809 	 25.252 	 -118.249 	 
