34

S 	 -105.3 	 -1.57868 	 -107.433 	 
C 	 -105.299 	 -0.302979 	 -108.56 	 
C 	 -105.132 	 0.902392 	 -107.882 	 
C 	 -105.134 	 0.754938 	 -106.461 	 
C 	 -104.9 	 -0.525919 	 -106.075 	 
H 	 -105.132 	 1.47275 	 -105.607 	 
C 	 -105.273 	 2.31695 	 -108.506 	 
H 	 -106.217 	 2.57468 	 -108.648 	 
H 	 -104.998 	 2.29173 	 -109.549 	 
C 	 -104.525 	 3.44848 	 -107.764 	 
H 	 -104.834 	 3.42558 	 -106.758 	 
H 	 -103.509 	 3.189 	 -107.735 	 
C 	 -104.885 	 4.81646 	 -108.232 	 
H 	 -104.083 	 5.54385 	 -107.8 	 
H 	 -104.703 	 4.89319 	 -109.352 	 
H 	 -105.833 	 5.17787 	 -107.902 	 
S 	 -105.982 	 -2.25452 	 -104.209 	 
C 	 -105.492 	 -2.06273 	 -102.509 	 
C 	 -104.468 	 -1.136 	 -102.408 	 
C 	 -104.066 	 -0.591794 	 -103.68 	 
C 	 -104.821 	 -1.05623 	 -104.735 	 
H 	 -103.973 	 -0.897213 	 -101.46 	 
C 	 -102.914 	 0.411691 	 -103.89 	 
H 	 -103.297 	 1.33245 	 -103.515 	 
H 	 -102.739 	 0.622622 	 -104.994 	 
C 	 -101.524 	 0.0192695 	 -103.387 	 
H 	 -101.609 	 0.286455 	 -102.282 	 
H 	 -100.698 	 0.62973 	 -103.803 	 
C 	 -101.219 	 -1.39469 	 -103.718 	 
H 	 -101.96 	 -2.04109 	 -103.276 	 
H 	 -100.289 	 -1.60447 	 -103.311 	 
H 	 -101.218 	 -1.47309 	 -104.828 	 
H 	 -105.593 	 -0.267359 	 -109.635 	 
H 	 -105.814 	 -2.62368 	 -101.664 	 
