34

S 	 -49.6186 	 16.4307 	 26.4561 	 
C 	 -50.0534 	 17.0164 	 24.8619 	 
C 	 -48.979 	 17.3702 	 24.1121 	 
C 	 -47.7778 	 17.212 	 24.8702 	 
C 	 -47.9964 	 16.9003 	 26.2331 	 
H 	 -46.7885 	 17.4157 	 24.5734 	 
C 	 -48.9502 	 17.6072 	 22.6001 	 
H 	 -49.6893 	 16.9116 	 22.2496 	 
H 	 -48.0108 	 17.3464 	 22.1435 	 
C 	 -49.3954 	 18.998 	 22.1648 	 
H 	 -48.5734 	 19.6499 	 22.0027 	 
H 	 -49.8941 	 18.8346 	 21.2065 	 
C 	 -50.56 	 19.7107 	 22.9137 	 
H 	 -50.9676 	 20.4228 	 22.2071 	 
H 	 -51.4573 	 19.1128 	 23.2301 	 
H 	 -50.0844 	 20.0993 	 23.8134 	 
S 	 -46.6975 	 14.9232 	 27.7658 	 
C 	 -45.1587 	 15.3358 	 28.4915 	 
C 	 -44.9766 	 16.7005 	 28.3988 	 
C 	 -45.9106 	 17.4402 	 27.6436 	 
C 	 -46.9867 	 16.6418 	 27.1707 	 
H 	 -44.2129 	 17.1252 	 28.9504 	 
C 	 -45.7986 	 18.9409 	 27.341 	 
H 	 -46.1406 	 19.0061 	 26.2394 	 
H 	 -44.8266 	 19.3327 	 27.439 	 
C 	 -46.8502 	 19.8747 	 28.0351 	 
H 	 -47.8837 	 19.6414 	 27.6416 	 
H 	 -46.7665 	 20.925 	 27.8278 	 
C 	 -46.995 	 19.7442 	 29.5556 	 
H 	 -46.0949 	 19.7631 	 30.1586 	 
H 	 -47.4061 	 18.7799 	 29.7252 	 
H 	 -47.752 	 20.424 	 29.9374 	 
H 	 -51.0681 	 17.0157 	 24.4506 	 
H 	 -44.4792 	 14.6307 	 29.0363 	 
