34

S 	 11.9309 	 -17.5073 	 -120.512 	 
C 	 10.468 	 -16.8589 	 -121.292 	 
C 	 9.42204 	 -16.9962 	 -120.372 	 
C 	 9.76359 	 -17.679 	 -119.161 	 
C 	 11.0377 	 -18.2083 	 -119.205 	 
H 	 9.0952 	 -17.8378 	 -118.324 	 
C 	 8.056 	 -16.3637 	 -120.533 	 
H 	 7.40056 	 -17.1404 	 -120.222 	 
H 	 7.89072 	 -16.1422 	 -121.622 	 
C 	 7.82155 	 -15.1896 	 -119.607 	 
H 	 7.89904 	 -15.5289 	 -118.58 	 
H 	 8.53326 	 -14.3693 	 -119.86 	 
C 	 6.45104 	 -14.5146 	 -119.807 	 
H 	 6.39984 	 -13.8541 	 -120.696 	 
H 	 5.5747 	 -15.2371 	 -119.868 	 
H 	 6.2917 	 -13.9863 	 -118.901 	 
S 	 13.0597 	 -18.4158 	 -117.254 	 
C 	 13.3469 	 -19.9641 	 -116.484 	 
C 	 12.1364 	 -20.6008 	 -116.489 	 
C 	 11.2301 	 -20.2 	 -117.52 	 
C 	 11.6159 	 -18.9882 	 -118.137 	 
H 	 12.0657 	 -21.484 	 -115.827 	 
C 	 9.99021 	 -21.0139 	 -117.89 	 
H 	 9.2256 	 -20.2892 	 -117.864 	 
H 	 9.86102 	 -21.7665 	 -117.154 	 
C 	 10.0308 	 -21.6435 	 -119.273 	 
H 	 10.3785 	 -20.8994 	 -120.017 	 
H 	 9.0268 	 -21.6091 	 -119.73 	 
C 	 10.7961 	 -23.0446 	 -119.383 	 
H 	 11.8369 	 -22.9045 	 -119.299 	 
H 	 10.6291 	 -23.3099 	 -120.408 	 
H 	 10.3914 	 -23.8787 	 -118.746 	 
H 	 10.4934 	 -16.3218 	 -122.218 	 
H 	 14.1644 	 -20.235 	 -115.809 	 
