34

S 	 -116.308 	 60.5429 	 -38.6806 	 
C 	 -115.946 	 59.4583 	 -37.4535 	 
C 	 -116.752 	 59.6251 	 -36.3454 	 
C 	 -117.565 	 60.8112 	 -36.4657 	 
C 	 -117.37 	 61.4759 	 -37.6622 	 
H 	 -118.192 	 61.1897 	 -35.6726 	 
C 	 -116.745 	 58.7304 	 -35.0411 	 
H 	 -117.776 	 58.6905 	 -34.7344 	 
H 	 -116.2 	 59.2862 	 -34.2616 	 
C 	 -115.987 	 57.3924 	 -35.1629 	 
H 	 -116.61 	 56.7801 	 -35.7885 	 
H 	 -114.953 	 57.5599 	 -35.6202 	 
C 	 -115.793 	 56.7065 	 -33.8174 	 
H 	 -116.786 	 56.6155 	 -33.4056 	 
H 	 -115.283 	 55.7689 	 -33.7421 	 
H 	 -115.28 	 57.4129 	 -33.0516 	 
S 	 -118.759 	 62.3528 	 -39.7928 	 
C 	 -119.663 	 63.842 	 -39.763 	 
C 	 -119.347 	 64.4609 	 -38.6167 	 
C 	 -118.509 	 63.762 	 -37.6801 	 
C 	 -118.15 	 62.5219 	 -38.2087 	 
H 	 -119.69 	 65.504 	 -38.5433 	 
C 	 -118.162 	 64.4267 	 -36.322 	 
H 	 -117.881 	 65.4581 	 -36.6116 	 
H 	 -117.189 	 63.9539 	 -35.993 	 
C 	 -119.2 	 64.3615 	 -35.2662 	 
H 	 -119.44 	 63.2968 	 -35.1203 	 
H 	 -120.158 	 64.7574 	 -35.5395 	 
C 	 -118.816 	 65.0077 	 -33.938 	 
H 	 -119.621 	 64.7723 	 -33.2404 	 
H 	 -118.591 	 66.0703 	 -34.0004 	 
H 	 -117.959 	 64.5639 	 -33.4356 	 
H 	 -115.172 	 58.6796 	 -37.4836 	 
H 	 -120.115 	 64.3885 	 -40.6036 	 
