34

S 	 -108.845 	 29.2976 	 -18.47 	 
C 	 -109.421 	 27.8082 	 -19.2746 	 
C 	 -109.771 	 28.0527 	 -20.5585 	 
C 	 -109.491 	 29.4266 	 -20.9709 	 
C 	 -108.941 	 30.2307 	 -19.9989 	 
H 	 -109.598 	 29.7995 	 -21.9519 	 
C 	 -110.357 	 26.9991 	 -21.5687 	 
H 	 -111.382 	 26.8915 	 -21.2202 	 
H 	 -109.922 	 26.0597 	 -21.2824 	 
C 	 -110.28 	 27.2432 	 -23.0897 	 
H 	 -110.742 	 28.1846 	 -23.323 	 
H 	 -109.201 	 27.3889 	 -23.3082 	 
C 	 -110.847 	 26.1112 	 -24.0231 	 
H 	 -111.932 	 26.1086 	 -23.869 	 
H 	 -110.561 	 26.4345 	 -24.997 	 
H 	 -110.553 	 25.105 	 -23.7991 	 
S 	 -107.939 	 32.4306 	 -18.6348 	 
C 	 -107.485 	 33.9053 	 -19.5102 	 
C 	 -108.13 	 33.9299 	 -20.7356 	 
C 	 -108.625 	 32.6261 	 -21.1036 	 
C 	 -108.578 	 31.6565 	 -20.0455 	 
H 	 -108.052 	 34.8612 	 -21.2675 	 
C 	 -109.272 	 32.3456 	 -22.4711 	 
H 	 -109.639 	 33.2487 	 -22.9415 	 
H 	 -110.083 	 31.6438 	 -22.2741 	 
C 	 -108.223 	 31.8146 	 -23.3526 	 
H 	 -107.82 	 30.9188 	 -22.922 	 
H 	 -107.444 	 32.5247 	 -23.403 	 
C 	 -108.699 	 31.3928 	 -24.7212 	 
H 	 -109.482 	 30.5918 	 -24.6767 	 
H 	 -107.931 	 31.1331 	 -25.4684 	 
H 	 -109.261 	 32.2979 	 -25.1205 	 
H 	 -109.327 	 26.7947 	 -18.926 	 
H 	 -107.153 	 34.8179 	 -19.0998 	 
