34

S 	 -87.0849 	 1.81943 	 5.14444 	 
C 	 -85.8716 	 0.487761 	 4.93847 	 
C 	 -85.0258 	 0.827108 	 3.85705 	 
C 	 -85.6932 	 1.82718 	 2.98492 	 
C 	 -86.7726 	 2.4918 	 3.57217 	 
H 	 -85.4587 	 2.08468 	 1.9806 	 
C 	 -83.7246 	 0.140668 	 3.50519 	 
H 	 -83.9895 	 -0.477331 	 2.68799 	 
H 	 -83.4208 	 -0.518807 	 4.34848 	 
C 	 -82.5369 	 1.00593 	 3.037 	 
H 	 -81.7758 	 0.543152 	 2.43484 	 
H 	 -82.9474 	 1.68733 	 2.33491 	 
C 	 -82.0166 	 1.91979 	 4.09361 	 
H 	 -81.5742 	 1.31851 	 4.91799 	 
H 	 -81.2666 	 2.53252 	 3.70994 	 
H 	 -82.7809 	 2.58463 	 4.48924 	 
S 	 -88.1824 	 4.81403 	 4.01451 	 
C 	 -88.7317 	 5.66391 	 2.52228 	 
C 	 -88.6727 	 4.88469 	 1.41757 	 
C 	 -88.2087 	 3.58159 	 1.65404 	 
C 	 -87.7308 	 3.43801 	 2.93234 	 
H 	 -88.8823 	 5.33823 	 0.503325 	 
C 	 -88.1218 	 2.54183 	 0.556746 	 
H 	 -87.1029 	 2.31991 	 0.378802 	 
H 	 -88.5187 	 2.87653 	 -0.444204 	 
C 	 -89.0311 	 1.36405 	 0.824436 	 
H 	 -90.0456 	 1.83903 	 0.782948 	 
H 	 -89.0544 	 0.902816 	 1.78961 	 
C 	 -88.9589 	 0.251115 	 -0.26194 	 
H 	 -89.421 	 0.743031 	 -1.09304 	 
H 	 -89.64 	 -0.603675 	 -0.0943643 	 
H 	 -87.9579 	 -0.213548 	 -0.426802 	 
H 	 -85.6384 	 -0.166855 	 5.71506 	 
H 	 -89.1072 	 6.68399 	 2.3923 	 
