34

S 	 -109.469 	 58.9099 	 -16.9017 	 
C 	 -109.779 	 59.453 	 -15.2396 	 
C 	 -108.734 	 59.1683 	 -14.412 	 
C 	 -107.552 	 58.6732 	 -15.1164 	 
C 	 -107.745 	 58.5565 	 -16.5365 	 
H 	 -106.566 	 58.5211 	 -14.7151 	 
C 	 -108.949 	 59.1024 	 -12.8492 	 
H 	 -108.177 	 58.5022 	 -12.3528 	 
H 	 -109.905 	 58.6101 	 -12.6224 	 
C 	 -108.899 	 60.4676 	 -12.1524 	 
H 	 -108.146 	 61.098 	 -12.5916 	 
H 	 -109.826 	 61.0382 	 -12.43 	 
C 	 -108.865 	 60.3871 	 -10.6356 	 
H 	 -108.535 	 61.3261 	 -10.2483 	 
H 	 -109.903 	 60.1986 	 -10.2392 	 
H 	 -108.142 	 59.6618 	 -10.2847 	 
S 	 -107.26 	 56.7774 	 -18.5725 	 
C 	 -105.854 	 56.8795 	 -19.5013 	 
C 	 -104.962 	 57.6895 	 -18.9278 	 
C 	 -105.469 	 58.4108 	 -17.7824 	 
C 	 -106.784 	 58.0551 	 -17.5051 	 
H 	 -104.048 	 57.8884 	 -19.4261 	 
C 	 -104.599 	 59.4515 	 -17.0644 	 
H 	 -104.48 	 59.1514 	 -16.0549 	 
H 	 -105.204 	 60.3388 	 -16.9803 	 
C 	 -103.158 	 59.7646 	 -17.5265 	 
H 	 -103.113 	 59.7295 	 -18.5936 	 
H 	 -102.386 	 58.9288 	 -17.337 	 
C 	 -102.605 	 61.11 	 -16.989 	 
H 	 -101.514 	 61.2084 	 -17.1641 	 
H 	 -102.789 	 61.1533 	 -15.9293 	 
H 	 -103.109 	 61.9323 	 -17.4266 	 
H 	 -110.712 	 59.774 	 -14.9411 	 
H 	 -105.6 	 56.4019 	 -20.3583 	 
