34

S 	 -105.243 	 43.2356 	 -93.9672 	 
C 	 -105.249 	 42.2258 	 -92.529 	 
C 	 -104.158 	 41.4323 	 -92.3935 	 
C 	 -103.276 	 41.5775 	 -93.5202 	 
C 	 -103.703 	 42.4904 	 -94.4069 	 
H 	 -102.356 	 41.0843 	 -93.727 	 
C 	 -104.084 	 40.3318 	 -91.3104 	 
H 	 -105.092 	 40.1109 	 -91.0066 	 
H 	 -103.599 	 40.8066 	 -90.4781 	 
C 	 -103.554 	 38.9719 	 -91.7757 	 
H 	 -104.334 	 38.4578 	 -92.3588 	 
H 	 -102.831 	 39.1762 	 -92.5449 	 
C 	 -102.977 	 38.0553 	 -90.6881 	 
H 	 -102.259 	 37.3462 	 -91.0551 	 
H 	 -102.409 	 38.6472 	 -89.8806 	 
H 	 -103.804 	 37.5193 	 -90.1913 	 
S 	 -103.203 	 41.5467 	 -96.9087 	 
C 	 -102.36 	 42.5616 	 -98.0077 	 
C 	 -101.95 	 43.724 	 -97.4123 	 
C 	 -102.412 	 43.9522 	 -96.0963 	 
C 	 -103.08 	 42.8258 	 -95.6526 	 
H 	 -101.383 	 44.366 	 -98.1424 	 
C 	 -102.276 	 45.2787 	 -95.4059 	 
H 	 -102.189 	 45.135 	 -94.3267 	 
H 	 -103.224 	 45.8595 	 -95.4238 	 
C 	 -101.043 	 46.1246 	 -95.8573 	 
H 	 -101.192 	 46.5701 	 -96.9033 	 
H 	 -100.189 	 45.4403 	 -95.949 	 
C 	 -100.652 	 47.3453 	 -95.0506 	 
H 	 -99.937 	 47.9269 	 -95.6188 	 
H 	 -100.273 	 47.0235 	 -94.0548 	 
H 	 -101.463 	 48.0947 	 -94.8857 	 
H 	 -106.122 	 42.1094 	 -91.8333 	 
H 	 -101.962 	 42.3001 	 -98.9885 	 
