34

S 	 -83.7924 	 0.334793 	 -116.362 	 
C 	 -83.6247 	 -1.41754 	 -116.324 	 
C 	 -83.6157 	 -1.97463 	 -117.612 	 
C 	 -83.736 	 -0.940836 	 -118.645 	 
C 	 -83.8501 	 0.346379 	 -118.144 	 
H 	 -83.7188 	 -1.07609 	 -119.742 	 
C 	 -83.5232 	 -3.51172 	 -117.875 	 
H 	 -83.1448 	 -3.92985 	 -116.871 	 
H 	 -82.8198 	 -3.71355 	 -118.708 	 
C 	 -84.7021 	 -4.4086 	 -118.273 	 
H 	 -84.4108 	 -5.4432 	 -118.381 	 
H 	 -85.369 	 -4.27604 	 -117.399 	 
C 	 -85.3397 	 -3.92796 	 -119.603 	 
H 	 -86.2792 	 -4.46241 	 -119.744 	 
H 	 -85.595 	 -2.87829 	 -119.574 	 
H 	 -84.6712 	 -4.12323 	 -120.459 	 
S 	 -82.5139 	 2.55003 	 -119.227 	 
C 	 -83.363 	 3.6015 	 -120.392 	 
C 	 -84.7219 	 3.30087 	 -120.374 	 
C 	 -85.0536 	 2.1146 	 -119.671 	 
C 	 -83.934 	 1.56748 	 -118.992 	 
H 	 -85.3565 	 3.81853 	 -121.03 	 
C 	 -86.4816 	 1.56418 	 -119.597 	 
H 	 -86.4721 	 0.49261 	 -119.513 	 
H 	 -86.9498 	 1.87679 	 -120.541 	 
C 	 -87.3817 	 1.98124 	 -118.446 	 
H 	 -87.4599 	 3.0738 	 -118.433 	 
H 	 -86.9089 	 1.71523 	 -117.534 	 
C 	 -88.7574 	 1.38701 	 -118.467 	 
H 	 -88.6073 	 0.257134 	 -118.511 	 
H 	 -89.5271 	 1.73352 	 -119.213 	 
H 	 -89.1925 	 1.67737 	 -117.508 	 
H 	 -83.5557 	 -2.05546 	 -115.458 	 
H 	 -83.057 	 4.44871 	 -120.986 	 
