34

S 	 32.4737 	 -32.7213 	 -129.965 	 
C 	 32.294 	 -32.5781 	 -128.236 	 
C 	 32.9657 	 -33.5334 	 -127.519 	 
C 	 33.3716 	 -34.5616 	 -128.394 	 
C 	 33.0321 	 -34.3684 	 -129.732 	 
H 	 33.91 	 -35.4347 	 -128.073 	 
C 	 33.2598 	 -33.5199 	 -126.032 	 
H 	 33.1367 	 -34.5939 	 -125.736 	 
H 	 32.586 	 -32.7742 	 -125.529 	 
C 	 34.7078 	 -33.0553 	 -125.789 	 
H 	 34.9933 	 -33.1337 	 -124.793 	 
H 	 35.4331 	 -33.6422 	 -126.29 	 
C 	 34.9731 	 -31.6007 	 -126.258 	 
H 	 36.0751 	 -31.2521 	 -126.136 	 
H 	 34.6538 	 -31.3771 	 -127.277 	 
H 	 34.4489 	 -30.9513 	 -125.571 	 
S 	 34.1418 	 -34.8564 	 -132.205 	 
C 	 34.2502 	 -36.4644 	 -132.881 	 
C 	 33.4955 	 -37.3489 	 -132.126 	 
C 	 33.0165 	 -36.7867 	 -130.878 	 
C 	 33.2279 	 -35.3727 	 -130.789 	 
H 	 33.4232 	 -38.4042 	 -132.441 	 
C 	 32.1797 	 -37.5584 	 -129.819 	 
H 	 31.5352 	 -38.1764 	 -130.443 	 
H 	 31.523 	 -36.7562 	 -129.205 	 
C 	 33.0448 	 -38.3353 	 -128.842 	 
H 	 32.3502 	 -38.7851 	 -128.154 	 
H 	 33.7958 	 -37.7461 	 -128.315 	 
C 	 33.8308 	 -39.4912 	 -129.476 	 
H 	 34.3893 	 -39.8697 	 -128.599 	 
H 	 34.5154 	 -39.1487 	 -130.176 	 
H 	 33.1524 	 -40.2365 	 -129.923 	 
H 	 31.7112 	 -31.7148 	 -127.908 	 
H 	 34.7523 	 -36.714 	 -133.783 	 
