34

S 	 -103.032 	 22.581 	 -110.563 	 
C 	 -103.944 	 21.7919 	 -111.88 	 
C 	 -104.653 	 22.75 	 -112.518 	 
C 	 -104.763 	 23.9905 	 -111.734 	 
C 	 -103.874 	 24.0911 	 -110.707 	 
H 	 -105.307 	 24.8536 	 -112.004 	 
C 	 -105.528 	 22.4902 	 -113.757 	 
H 	 -106.544 	 22.8262 	 -113.555 	 
H 	 -105.534 	 21.4384 	 -113.848 	 
C 	 -104.964 	 23.2052 	 -115.041 	 
H 	 -105.562 	 22.9215 	 -115.838 	 
H 	 -104.96 	 24.2987 	 -114.879 	 
C 	 -103.47 	 22.8842 	 -115.202 	 
H 	 -102.859 	 23.4777 	 -114.489 	 
H 	 -103.321 	 21.8446 	 -115.089 	 
H 	 -103.112 	 23.1555 	 -116.188 	 
S 	 -103.912 	 25.4753 	 -108.274 	 
C 	 -102.853 	 26.8873 	 -108.117 	 
C 	 -102.302 	 27.2456 	 -109.335 	 
C 	 -102.55 	 26.2678 	 -110.317 	 
C 	 -103.452 	 25.2987 	 -109.942 	 
H 	 -101.749 	 28.1024 	 -109.49 	 
C 	 -101.891 	 26.2114 	 -111.652 	 
H 	 -101.706 	 25.1916 	 -111.89 	 
H 	 -100.877 	 26.6178 	 -111.742 	 
C 	 -102.559 	 26.9481 	 -112.858 	 
H 	 -102.74 	 28.0465 	 -112.647 	 
H 	 -103.581 	 26.4867 	 -112.977 	 
C 	 -101.811 	 26.844 	 -114.13 	 
H 	 -101.497 	 25.7843 	 -114.222 	 
H 	 -100.882 	 27.3963 	 -114.084 	 
H 	 -102.463 	 27.1676 	 -114.928 	 
H 	 -103.838 	 20.7425 	 -112.161 	 
H 	 -102.529 	 27.5493 	 -107.31 	 
