34

S 	 -84.7678 	 -43.3451 	 -83.6198 	 
C 	 -86.2629 	 -42.4674 	 -83.7369 	 
C 	 -87.4051 	 -43.2971 	 -83.6615 	 
C 	 -86.9626 	 -44.63 	 -83.5406 	 
C 	 -85.5977 	 -44.8783 	 -83.6682 	 
H 	 -87.6893 	 -45.3523 	 -83.3626 	 
C 	 -88.8968 	 -42.8977 	 -83.5203 	 
H 	 -89.449 	 -43.5641 	 -84.1995 	 
H 	 -88.9955 	 -41.9371 	 -84.0617 	 
C 	 -89.4945 	 -42.8623 	 -82.0855 	 
H 	 -89.1134 	 -43.8048 	 -81.6448 	 
H 	 -89.0924 	 -42.0961 	 -81.4554 	 
C 	 -90.9965 	 -42.9438 	 -81.8749 	 
H 	 -91.4735 	 -41.9994 	 -82.0512 	 
H 	 -91.4585 	 -43.686 	 -82.5529 	 
H 	 -91.2972 	 -43.2951 	 -80.8963 	 
S 	 -84.1127 	 -46.9445 	 -84.8257 	 
C 	 -83.3957 	 -48.2241 	 -83.8136 	 
C 	 -84.0105 	 -48.1008 	 -82.5773 	 
C 	 -84.8252 	 -46.9396 	 -82.3221 	 
C 	 -84.9611 	 -46.1963 	 -83.4907 	 
H 	 -83.8482 	 -48.7851 	 -81.7708 	 
C 	 -85.4224 	 -46.4711 	 -80.9477 	 
H 	 -86.5035 	 -46.6137 	 -81.0601 	 
H 	 -85.1937 	 -45.3727 	 -80.8766 	 
C 	 -84.9748 	 -47.2398 	 -79.6681 	 
H 	 -83.9201 	 -47.177 	 -79.4567 	 
H 	 -85.2023 	 -48.3172 	 -79.8307 	 
C 	 -85.5831 	 -46.8421 	 -78.3559 	 
H 	 -86.7277 	 -46.8374 	 -78.3295 	 
H 	 -85.3229 	 -45.7965 	 -78.3579 	 
H 	 -85.2507 	 -47.4355 	 -77.5477 	 
H 	 -86.4156 	 -41.3543 	 -83.7468 	 
H 	 -82.6954 	 -48.9672 	 -84.045 	 
