34

S 	 34.2667 	 -24.2455 	 -119.489 	 
C 	 35.5 	 -23.8513 	 -118.393 	 
C 	 36.3037 	 -25.0139 	 -118.104 	 
C 	 35.7613 	 -26.2097 	 -118.72 	 
C 	 34.645 	 -26.0165 	 -119.499 	 
H 	 35.9795 	 -27.2812 	 -118.593 	 
C 	 37.6292 	 -25.0868 	 -117.32 	 
H 	 37.872 	 -24.0744 	 -116.878 	 
H 	 38.2864 	 -25.2268 	 -118.214 	 
C 	 37.7194 	 -26.2778 	 -116.28 	 
H 	 37.5925 	 -27.2697 	 -116.633 	 
H 	 38.7378 	 -26.209 	 -115.806 	 
C 	 36.6452 	 -26.2336 	 -115.212 	 
H 	 35.731 	 -26.4619 	 -115.719 	 
H 	 36.8901 	 -26.9625 	 -114.491 	 
H 	 36.5371 	 -25.207 	 -114.931 	 
S 	 33.0589 	 -26.4689 	 -121.715 	 
C 	 32.4089 	 -28.131 	 -122.009 	 
C 	 32.8921 	 -29.0156 	 -121.026 	 
C 	 33.7352 	 -28.4019 	 -120.073 	 
C 	 33.9221 	 -27.0204 	 -120.284 	 
H 	 32.6163 	 -30.0801 	 -121.022 	 
C 	 34.2183 	 -29.2233 	 -118.871 	 
H 	 33.1985 	 -29.5563 	 -118.559 	 
H 	 34.4854 	 -28.5939 	 -118.075 	 
C 	 34.9675 	 -30.5492 	 -119.017 	 
H 	 34.5271 	 -31.1224 	 -119.806 	 
H 	 34.9817 	 -31.0569 	 -118.046 	 
C 	 36.4352 	 -30.3636 	 -119.271 	 
H 	 36.9283 	 -31.3636 	 -119.351 	 
H 	 36.9291 	 -29.7797 	 -118.419 	 
H 	 36.6723 	 -29.6802 	 -120.177 	 
H 	 35.7342 	 -22.826 	 -118.035 	 
H 	 31.6367 	 -28.4758 	 -122.69 	 
