34

S 	 21.9769 	 1.50066 	 -114.888 	 
C 	 20.612 	 2.51932 	 -115.042 	 
C 	 20.6544 	 3.63984 	 -114.194 	 
C 	 21.9626 	 3.70197 	 -113.646 	 
C 	 22.8758 	 2.7007 	 -113.867 	 
H 	 22.3179 	 4.48564 	 -113.027 	 
C 	 19.633 	 4.81398 	 -114.021 	 
H 	 19.234 	 4.76728 	 -112.998 	 
H 	 18.8311 	 4.71519 	 -114.791 	 
C 	 20.2537 	 6.27444 	 -114.164 	 
H 	 20.7091 	 6.42423 	 -113.187 	 
H 	 21.0433 	 6.20784 	 -114.844 	 
C 	 19.2224 	 7.41208 	 -114.404 	 
H 	 18.6965 	 7.22026 	 -115.332 	 
H 	 18.439 	 7.57888 	 -113.645 	 
H 	 19.7311 	 8.37913 	 -114.486 	 
S 	 25.4077 	 2.51212 	 -114.761 	 
C 	 26.7041 	 2.05828 	 -113.6 	 
C 	 26.2961 	 2.31673 	 -112.296 	 
C 	 24.9006 	 2.66085 	 -112.238 	 
C 	 24.2474 	 2.58063 	 -113.453 	 
H 	 27.0047 	 2.269 	 -111.523 	 
C 	 24.1592 	 2.86706 	 -110.869 	 
H 	 23.5987 	 3.78443 	 -111.043 	 
H 	 24.8914 	 3.09039 	 -110.127 	 
C 	 23.3143 	 1.72678 	 -110.337 	 
H 	 24.0876 	 0.879805 	 -110.288 	 
H 	 22.4998 	 1.46452 	 -110.955 	 
C 	 22.6631 	 2.07918 	 -109.033 	 
H 	 22.0668 	 1.26684 	 -108.641 	 
H 	 22.0119 	 2.87928 	 -109.057 	 
H 	 23.441 	 2.19464 	 -108.233 	 
H 	 19.7888 	 2.39653 	 -115.659 	 
H 	 27.7582 	 1.77733 	 -113.922 	 
