34

S 	 -73.3141 	 -1.58788 	 13.4154 	 
C 	 -73.7314 	 -0.111043 	 12.6011 	 
C 	 -73.434 	 1.03851 	 13.3428 	 
C 	 -72.7698 	 0.692077 	 14.5599 	 
C 	 -72.7036 	 -0.684255 	 14.8112 	 
H 	 -72.4841 	 1.50009 	 15.3002 	 
C 	 -73.7558 	 2.47309 	 12.9765 	 
H 	 -74.5626 	 2.81602 	 13.6517 	 
H 	 -74.2498 	 2.45947 	 11.9894 	 
C 	 -72.5722 	 3.40569 	 13.0532 	 
H 	 -71.9397 	 3.19238 	 13.9266 	 
H 	 -71.976 	 3.30687 	 12.2125 	 
C 	 -72.7829 	 4.87142 	 13.2132 	 
H 	 -71.9536 	 5.51176 	 12.9294 	 
H 	 -73.5156 	 5.11666 	 12.466 	 
H 	 -73.0648 	 5.12904 	 14.2396 	 
S 	 -71.5637 	 -2.76568 	 15.9498 	 
C 	 -71.1919 	 -2.86145 	 17.649 	 
C 	 -71.813 	 -1.78232 	 18.2597 	 
C 	 -72.4405 	 -0.842736 	 17.399 	 
C 	 -72.3018 	 -1.1896 	 16.1016 	 
H 	 -71.661 	 -1.65094 	 19.3279 	 
C 	 -73.0533 	 0.401789 	 18.0428 	 
H 	 -73.8479 	 0.0150297 	 18.7091 	 
H 	 -73.4939 	 0.941484 	 17.2666 	 
C 	 -72.1165 	 1.35852 	 18.7968 	 
H 	 -71.8353 	 1.04906 	 19.8031 	 
H 	 -72.7791 	 2.16608 	 18.9371 	 
C 	 -70.8794 	 1.76917 	 17.9509 	 
H 	 -70.297 	 2.45513 	 18.5316 	 
H 	 -71.0397 	 2.19381 	 16.961 	 
H 	 -70.2841 	 0.945822 	 17.6153 	 
H 	 -74.2948 	 0.00735897 	 11.6712 	 
H 	 -70.5905 	 -3.53064 	 18.2349 	 
