34

S 	 -99.9618 	 6.67729 	 3.23317 	 
C 	 -99.4207 	 5.69589 	 1.96739 	 
C 	 -98.2127 	 5.09814 	 2.26934 	 
C 	 -97.7159 	 5.4586 	 3.58874 	 
C 	 -98.5711 	 6.32712 	 4.24255 	 
H 	 -96.8198 	 5.11466 	 4.08006 	 
C 	 -97.5964 	 4.08788 	 1.33351 	 
H 	 -98.4669 	 3.53358 	 1.02674 	 
H 	 -96.9754 	 3.37179 	 1.84395 	 
C 	 -96.8266 	 4.65663 	 0.112791 	 
H 	 -97.1911 	 5.59379 	 -0.2237 	 
H 	 -95.7697 	 4.88893 	 0.339728 	 
C 	 -96.7729 	 3.62442 	 -1.0318 	 
H 	 -96.1871 	 2.71402 	 -0.811497 	 
H 	 -97.7913 	 3.31277 	 -1.45145 	 
H 	 -96.1482 	 4.03392 	 -1.88493 	 
S 	 -100.131 	 6.92495 	 6.48665 	 
C 	 -99.3634 	 7.68012 	 7.85821 	 
C 	 -98.028 	 7.75297 	 7.69934 	 
C 	 -97.5842 	 7.28223 	 6.4332 	 
C 	 -98.5797 	 6.76136 	 5.64713 	 
H 	 -97.4322 	 8.1943 	 8.51119 	 
C 	 -96.1267 	 7.36525 	 6.14928 	 
H 	 -95.7022 	 8.2481 	 6.48676 	 
H 	 -96.0591 	 7.45392 	 5.03933 	 
C 	 -95.3291 	 6.22304 	 6.74821 	 
H 	 -95.7297 	 5.36092 	 6.36809 	 
H 	 -95.588 	 6.2928 	 7.81942 	 
C 	 -93.878 	 6.49995 	 6.42697 	 
H 	 -93.7086 	 6.73496 	 5.3936 	 
H 	 -93.276 	 5.58474 	 6.3957 	 
H 	 -93.4012 	 7.2685 	 7.05785 	 
H 	 -99.9312 	 5.44356 	 1.01634 	 
H 	 -99.8885 	 8.02096 	 8.70717 	 
