34

S 	 -96.3643 	 39.5502 	 -81.9831 	 
C 	 -96.0291 	 37.8497 	 -82.0338 	 
C 	 -96.8177 	 37.2272 	 -82.967 	 
C 	 -97.8145 	 38.1121 	 -83.4985 	 
C 	 -97.6802 	 39.3991 	 -83.0118 	 
H 	 -98.6754 	 37.9652 	 -84.1637 	 
C 	 -96.7097 	 35.7459 	 -83.227 	 
H 	 -97.4637 	 35.2129 	 -82.7113 	 
H 	 -95.9014 	 35.3915 	 -82.6675 	 
C 	 -96.605 	 35.4122 	 -84.6769 	 
H 	 -97.3142 	 35.9969 	 -85.2587 	 
H 	 -95.5638 	 35.5966 	 -84.8974 	 
C 	 -96.8989 	 33.8715 	 -84.8863 	 
H 	 -96.2446 	 33.384 	 -84.1534 	 
H 	 -97.9025 	 33.6584 	 -84.5624 	 
H 	 -96.7518 	 33.5183 	 -85.9233 	 
S 	 -99.6759 	 41.1518 	 -82.0196 	 
C 	 -100.606 	 42.1972 	 -83.0553 	 
C 	 -100.223 	 41.9923 	 -84.3614 	 
C 	 -99.009 	 41.1383 	 -84.531 	 
C 	 -98.5895 	 40.561 	 -83.3081 	 
H 	 -100.758 	 42.516 	 -85.165 	 
C 	 -98.6078 	 40.6493 	 -85.8669 	 
H 	 -99.0884 	 39.6639 	 -85.9703 	 
H 	 -97.5561 	 40.5427 	 -85.9136 	 
C 	 -98.9833 	 41.4577 	 -87.1102 	 
H 	 -98.6526 	 42.4296 	 -86.9262 	 
H 	 -100.042 	 41.3203 	 -87.1084 	 
C 	 -98.4012 	 40.7268 	 -88.3734 	 
H 	 -98.8985 	 39.7683 	 -88.4894 	 
H 	 -97.3493 	 40.8936 	 -88.6439 	 
H 	 -98.7321 	 41.2374 	 -89.3016 	 
H 	 -95.3695 	 37.2318 	 -81.434 	 
H 	 -101.273 	 43.0145 	 -82.8407 	 
