34

S 	 -46.3554 	 28.2182 	 30.6901 	 
C 	 -46.4077 	 29.0872 	 32.1214 	 
C 	 -46.8316 	 28.3643 	 33.2553 	 
C 	 -47.1262 	 27.0065 	 32.8061 	 
C 	 -46.9888 	 26.7914 	 31.4487 	 
H 	 -47.56 	 26.1841 	 33.4169 	 
C 	 -47.2364 	 28.9605 	 34.6161 	 
H 	 -48.3268 	 28.9386 	 34.6948 	 
H 	 -47.0198 	 30.0233 	 34.5575 	 
C 	 -46.491 	 28.3283 	 35.7937 	 
H 	 -46.7878 	 28.9927 	 36.6771 	 
H 	 -46.8255 	 27.3518 	 36.0802 	 
C 	 -44.9532 	 27.9852 	 35.544 	 
H 	 -44.8754 	 27.342 	 34.6846 	 
H 	 -44.4005 	 28.8924 	 35.4468 	 
H 	 -44.4714 	 27.5619 	 36.4057 	 
S 	 -48.1632 	 25.4375 	 29.2758 	 
C 	 -47.9051 	 23.6879 	 29.0257 	 
C 	 -47.0889 	 23.2299 	 30.0755 	 
C 	 -46.5912 	 24.1938 	 30.9778 	 
C 	 -47.1061 	 25.4699 	 30.7026 	 
H 	 -46.9042 	 22.1711 	 30.0661 	 
C 	 -45.6358 	 23.8401 	 32.1015 	 
H 	 -46.0117 	 22.8514 	 32.5278 	 
H 	 -45.8811 	 24.4948 	 32.8814 	 
C 	 -44.1091 	 23.8919 	 31.8974 	 
H 	 -43.8369 	 24.7489 	 31.4098 	 
H 	 -43.8366 	 23.0813 	 31.2116 	 
C 	 -43.3018 	 23.8811 	 33.2462 	 
H 	 -43.7392 	 24.6331 	 33.844 	 
H 	 -42.2795 	 24.1044 	 33.2396 	 
H 	 -43.4555 	 22.9882 	 33.8206 	 
H 	 -46.0568 	 30.1383 	 32.1443 	 
H 	 -48.3051 	 23.1295 	 28.185 	 
