34

S 	 -62.8261 	 20.8727 	 -71.6041 	 
C 	 -62.6005 	 19.3014 	 -70.891 	 
C 	 -63.4589 	 19.0332 	 -69.8547 	 
C 	 -64.3171 	 20.1394 	 -69.5722 	 
C 	 -64.2593 	 21.1226 	 -70.5449 	 
H 	 -65.0913 	 20.3249 	 -68.8126 	 
C 	 -63.5233 	 17.8441 	 -69.0343 	 
H 	 -64.1761 	 17.1473 	 -69.6552 	 
H 	 -64.0533 	 18.0659 	 -68.1549 	 
C 	 -62.3365 	 17.014 	 -68.6199 	 
H 	 -61.997 	 16.4986 	 -69.5707 	 
H 	 -61.5526 	 17.5808 	 -67.9994 	 
C 	 -62.5412 	 15.7938 	 -67.7119 	 
H 	 -61.7784 	 15.1544 	 -67.7081 	 
H 	 -62.6464 	 16.0919 	 -66.6601 	 
H 	 -63.4758 	 15.2007 	 -67.7933 	 
S 	 -64.6585 	 23.8164 	 -70.0815 	 
C 	 -66.2959 	 24.5342 	 -70.5397 	 
C 	 -67.0115 	 23.6182 	 -71.1853 	 
C 	 -66.3628 	 22.3314 	 -71.3206 	 
C 	 -65.1087 	 22.2685 	 -70.7025 	 
H 	 -67.943 	 23.9092 	 -71.6152 	 
C 	 -67.1226 	 21.2188 	 -72.0503 	 
H 	 -66.3542 	 20.5266 	 -72.4971 	 
H 	 -67.7201 	 21.711 	 -72.851 	 
C 	 -68.1239 	 20.3164 	 -71.3311 	 
H 	 -68.6969 	 19.8294 	 -71.9854 	 
H 	 -68.8293 	 20.9153 	 -70.6993 	 
C 	 -67.5389 	 19.2449 	 -70.4479 	 
H 	 -66.6943 	 18.6904 	 -70.8796 	 
H 	 -68.4306 	 18.6254 	 -70.2908 	 
H 	 -67.1588 	 19.777 	 -69.5868 	 
H 	 -61.8359 	 18.5519 	 -71.2202 	 
H 	 -66.5389 	 25.5845 	 -70.47 	 
