34

S 	 -97.8865 	 -26.9211 	 -64.1391 	 
C 	 -97.5987 	 -25.211 	 -64.5798 	 
C 	 -97.5137 	 -24.4034 	 -63.4506 	 
C 	 -97.75 	 -25.1936 	 -62.2823 	 
C 	 -97.8692 	 -26.5598 	 -62.4501 	 
H 	 -97.8044 	 -24.823 	 -61.269 	 
C 	 -97.3695 	 -22.8827 	 -63.3242 	 
H 	 -96.3372 	 -22.7786 	 -62.9718 	 
H 	 -98.0202 	 -22.3124 	 -62.7493 	 
C 	 -97.3821 	 -22.1816 	 -64.6826 	 
H 	 -96.6603 	 -22.746 	 -65.241 	 
H 	 -98.3228 	 -22.3202 	 -65.2158 	 
C 	 -97.1207 	 -20.7118 	 -64.5572 	 
H 	 -96.1146 	 -20.5698 	 -64.1698 	 
H 	 -97.1445 	 -20.2005 	 -65.4983 	 
H 	 -97.7995 	 -20.3147 	 -63.7863 	 
S 	 -96.3887 	 -28.7008 	 -61.2829 	 
C 	 -97.1913 	 -29.6187 	 -60.1001 	 
C 	 -98.3283 	 -29.0484 	 -59.5609 	 
C 	 -98.6858 	 -27.9493 	 -60.3492 	 
C 	 -97.8102 	 -27.6676 	 -61.4151 	 
H 	 -98.9322 	 -29.4291 	 -58.7471 	 
C 	 -99.9028 	 -27.1127 	 -59.9839 	 
H 	 -100.666 	 -27.8101 	 -59.7396 	 
H 	 -100.205 	 -26.5004 	 -60.9119 	 
C 	 -99.7095 	 -26.1437 	 -58.8183 	 
H 	 -98.7173 	 -25.7652 	 -58.814 	 
H 	 -99.864 	 -26.7125 	 -57.8476 	 
C 	 -100.731 	 -24.9853 	 -58.8093 	 
H 	 -101.748 	 -25.3165 	 -58.846 	 
H 	 -100.482 	 -24.4197 	 -59.7075 	 
H 	 -100.669 	 -24.2656 	 -58.0233 	 
H 	 -97.365 	 -24.8199 	 -65.5265 	 
H 	 -96.6749 	 -30.361 	 -59.5493 	 
