34

S 	 -118.141 	 22.6646 	 -18.3544 	 
C 	 -117.26 	 23.2705 	 -19.6778 	 
C 	 -116.812 	 24.5677 	 -19.4845 	 
C 	 -117.345 	 25.1052 	 -18.2634 	 
C 	 -118.145 	 24.2156 	 -17.5626 	 
H 	 -117.119 	 26.0405 	 -17.875 	 
C 	 -115.909 	 25.4246 	 -20.3371 	 
H 	 -116.202 	 26.4378 	 -20.2914 	 
H 	 -116.015 	 25.0077 	 -21.3665 	 
C 	 -114.407 	 25.4091 	 -19.9352 	 
H 	 -114.508 	 25.7913 	 -18.8788 	 
H 	 -113.995 	 24.4415 	 -19.7802 	 
C 	 -113.432 	 26.154 	 -20.8531 	 
H 	 -113.303 	 25.5697 	 -21.7928 	 
H 	 -113.811 	 27.1198 	 -21.253 	 
H 	 -112.525 	 26.3295 	 -20.2565 	 
S 	 -118.42 	 23.2795 	 -15.0698 	 
C 	 -119.397 	 24.1762 	 -13.8558 	 
C 	 -120.086 	 25.2375 	 -14.41 	 
C 	 -119.708 	 25.4034 	 -15.7804 	 
C 	 -118.828 	 24.4095 	 -16.2844 	 
H 	 -120.793 	 25.8646 	 -13.7732 	 
C 	 -120.301 	 26.5879 	 -16.5415 	 
H 	 -119.618 	 27.0099 	 -17.3109 	 
H 	 -120.388 	 27.4818 	 -15.9166 	 
C 	 -121.687 	 26.5036 	 -17.2896 	 
H 	 -121.662 	 25.5214 	 -17.7566 	 
H 	 -121.757 	 27.3702 	 -17.9436 	 
C 	 -122.892 	 26.4098 	 -16.3263 	 
H 	 -122.553 	 25.8811 	 -15.4897 	 
H 	 -123.833 	 25.922 	 -16.7656 	 
H 	 -123.199 	 27.4306 	 -16.0962 	 
H 	 -117 	 22.7203 	 -20.64 	 
H 	 -119.655 	 23.7894 	 -12.8857 	 
