34

S 	 -46.4567 	 -1.93601 	 -19.0189 	 
C 	 -46.0841 	 -1.67663 	 -17.2826 	 
C 	 -45.1722 	 -2.5452 	 -16.7434 	 
C 	 -44.6789 	 -3.41368 	 -17.7426 	 
C 	 -45.1538 	 -3.09799 	 -19.0073 	 
H 	 -43.8754 	 -4.11956 	 -17.5436 	 
C 	 -44.6409 	 -2.64181 	 -15.3501 	 
H 	 -43.6829 	 -2.02025 	 -15.3174 	 
H 	 -44.4418 	 -3.66019 	 -15.1013 	 
C 	 -45.5536 	 -2.20526 	 -14.2327 	 
H 	 -44.9147 	 -2.40431 	 -13.3478 	 
H 	 -45.6758 	 -1.15264 	 -14.4128 	 
C 	 -46.963 	 -2.90245 	 -14.1287 	 
H 	 -47.4009 	 -2.90723 	 -15.1013 	 
H 	 -46.838 	 -3.98063 	 -13.8286 	 
H 	 -47.5545 	 -2.39597 	 -13.3782 	 
S 	 -46.0446 	 -4.82147 	 -20.9601 	 
C 	 -44.8977 	 -5.30798 	 -22.2134 	 
C 	 -43.7455 	 -4.60674 	 -22.1244 	 
C 	 -43.6592 	 -3.73356 	 -20.9931 	 
C 	 -44.7992 	 -3.76371 	 -20.2517 	 
H 	 -42.9099 	 -4.75643 	 -22.8557 	 
C 	 -42.4175 	 -3.01974 	 -20.462 	 
H 	 -41.5293 	 -3.49301 	 -20.8032 	 
H 	 -42.4249 	 -3.18903 	 -19.3641 	 
C 	 -42.233 	 -1.66018 	 -21.1371 	 
H 	 -42.1893 	 -1.81393 	 -22.1964 	 
H 	 -41.2917 	 -1.28418 	 -20.7622 	 
C 	 -43.3422 	 -0.626464 	 -20.7647 	 
H 	 -44.4072 	 -1.0395 	 -20.946 	 
H 	 -43.1846 	 0.288517 	 -21.2121 	 
H 	 -43.1983 	 -0.491062 	 -19.7141 	 
H 	 -46.3745 	 -0.855934 	 -16.7021 	 
H 	 -45.0226 	 -6.14874 	 -22.8697 	 
