34

S 	 28.5441 	 -4.04304 	 -119.718 	 
C 	 26.915 	 -4.69516 	 -119.974 	 
C 	 27.0762 	 -6.07647 	 -120.029 	 
C 	 28.3408 	 -6.59262 	 -119.576 	 
C 	 29.1755 	 -5.5971 	 -119.212 	 
H 	 28.6096 	 -7.64942 	 -119.557 	 
C 	 25.8875 	 -7.00053 	 -120.333 	 
H 	 25.1719 	 -6.44024 	 -120.983 	 
H 	 25.5218 	 -7.31242 	 -119.304 	 
C 	 26.2632 	 -8.17183 	 -121.343 	 
H 	 26.8069 	 -7.86724 	 -122.194 	 
H 	 26.9227 	 -8.86559 	 -120.799 	 
C 	 24.9777 	 -8.91995 	 -121.754 	 
H 	 24.2849 	 -9.34485 	 -120.942 	 
H 	 24.3274 	 -8.34396 	 -122.383 	 
H 	 25.2987 	 -9.84482 	 -122.34 	 
S 	 31.7983 	 -5.60878 	 -120.046 	 
C 	 33.0489 	 -6.19505 	 -119.019 	 
C 	 32.5996 	 -6.67761 	 -117.805 	 
C 	 31.1289 	 -6.56033 	 -117.68 	 
C 	 30.5778 	 -5.84924 	 -118.818 	 
H 	 33.2141 	 -7.07978 	 -117.023 	 
C 	 30.3634 	 -6.91919 	 -116.389 	 
H 	 31.0549 	 -7.51523 	 -115.885 	 
H 	 29.5222 	 -7.65926 	 -116.545 	 
C 	 30.0073 	 -5.7455 	 -115.555 	 
H 	 29.4817 	 -5.09826 	 -116.238 	 
H 	 30.9542 	 -5.35406 	 -115.223 	 
C 	 29.0285 	 -6.21175 	 -114.436 	 
H 	 28.7806 	 -5.38713 	 -113.814 	 
H 	 29.3368 	 -7.11496 	 -113.842 	 
H 	 28.1135 	 -6.48234 	 -114.925 	 
H 	 26.0381 	 -4.14498 	 -120.344 	 
H 	 34.0548 	 -6.1726 	 -119.292 	 
