34

S 	 -59.8318 	 9.60044 	 -15.7171 	 
C 	 -58.9383 	 8.07602 	 -15.9347 	 
C 	 -59.7836 	 6.94091 	 -15.7412 	 
C 	 -61.0843 	 7.3265 	 -15.3446 	 
C 	 -61.3108 	 8.65846 	 -15.2609 	 
H 	 -61.9109 	 6.6452 	 -15.1562 	 
C 	 -59.2212 	 5.57851 	 -15.7077 	 
H 	 -59.3403 	 5.2367 	 -14.6177 	 
H 	 -58.1624 	 5.61143 	 -15.7287 	 
C 	 -59.8382 	 4.55185 	 -16.7597 	 
H 	 -60.9027 	 4.55094 	 -16.7039 	 
H 	 -59.569 	 4.79966 	 -17.7537 	 
C 	 -59.4646 	 3.11227 	 -16.607 	 
H 	 -59.7914 	 2.81173 	 -15.6004 	 
H 	 -59.8099 	 2.54476 	 -17.4632 	 
H 	 -58.3896 	 3.02493 	 -16.6366 	 
S 	 -62.1196 	 10.5907 	 -13.429 	 
C 	 -63.8374 	 10.609 	 -13.0127 	 
C 	 -64.5987 	 9.67027 	 -13.7184 	 
C 	 -63.8242 	 9.08584 	 -14.7907 	 
C 	 -62.4269 	 9.34766 	 -14.6439 	 
H 	 -65.6356 	 9.5993 	 -13.4729 	 
C 	 -64.488 	 8.04193 	 -15.7139 	 
H 	 -63.8418 	 7.46264 	 -16.2691 	 
H 	 -65.0939 	 8.59819 	 -16.4323 	 
C 	 -65.5401 	 7.0872 	 -15.0222 	 
H 	 -65.9473 	 6.48914 	 -15.8136 	 
H 	 -66.3815 	 7.68346 	 -14.6552 	 
C 	 -65.0356 	 6.31914 	 -13.8403 	 
H 	 -65.8453 	 5.59756 	 -13.4918 	 
H 	 -64.6916 	 7.01153 	 -12.9914 	 
H 	 -64.1554 	 5.7153 	 -14.0528 	 
H 	 -57.8965 	 7.94522 	 -16.2442 	 
H 	 -64.1798 	 11.3713 	 -12.3766 	 
