34

S 	 -115.406 	 59.116 	 -72.6427 	 
C 	 -113.805 	 58.4534 	 -72.6042 	 
C 	 -113.032 	 58.9906 	 -71.5724 	 
C 	 -113.795 	 60.0683 	 -70.9805 	 
C 	 -115.075 	 60.2736 	 -71.4255 	 
H 	 -113.539 	 60.8489 	 -70.2912 	 
C 	 -111.668 	 58.461 	 -71.1363 	 
H 	 -110.936 	 59.1107 	 -71.7462 	 
H 	 -111.39 	 57.5562 	 -71.6692 	 
C 	 -111.189 	 58.5516 	 -69.6256 	 
H 	 -110.062 	 58.7092 	 -69.5271 	 
H 	 -111.611 	 59.5658 	 -69.3708 	 
C 	 -111.65 	 57.4035 	 -68.7605 	 
H 	 -112.751 	 57.2677 	 -68.7521 	 
H 	 -111.158 	 56.5864 	 -69.1551 	 
H 	 -111.302 	 57.5298 	 -67.7214 	 
S 	 -115.86 	 61.9278 	 -69.4141 	 
C 	 -117.026 	 63.1468 	 -69.7813 	 
C 	 -117.471 	 63.1544 	 -71.0661 	 
C 	 -116.849 	 62.1 	 -71.8294 	 
C 	 -116.018 	 61.3017 	 -71.0735 	 
H 	 -118.171 	 63.9112 	 -71.4024 	 
C 	 -117.102 	 61.965 	 -73.2898 	 
H 	 -116.202 	 61.688 	 -73.8561 	 
H 	 -117.316 	 63.0157 	 -73.6621 	 
C 	 -118.293 	 61.1082 	 -73.6466 	 
H 	 -118.015 	 60.1443 	 -73.4391 	 
H 	 -118.343 	 61.1787 	 -74.7377 	 
C 	 -119.621 	 61.4931 	 -72.9554 	 
H 	 -119.817 	 62.5398 	 -72.9708 	 
H 	 -119.489 	 61.1433 	 -71.9845 	 
H 	 -120.438 	 60.9043 	 -73.4385 	 
H 	 -113.382 	 57.803 	 -73.3601 	 
H 	 -117.428 	 64.0101 	 -69.2307 	 
