34

S 	 -54.0586 	 7.01719 	 -32.149 	 
C 	 -55.0248 	 5.56661 	 -31.905 	 
C 	 -54.2102 	 4.43645 	 -31.866 	 
C 	 -52.8302 	 4.70296 	 -32.223 	 
C 	 -52.6004 	 6.04402 	 -32.5793 	 
H 	 -52.0831 	 3.93417 	 -32.1819 	 
C 	 -54.5894 	 3.06957 	 -31.3104 	 
H 	 -55.0584 	 3.18797 	 -30.3154 	 
H 	 -53.5973 	 2.63517 	 -31.061 	 
C 	 -55.4328 	 2.17007 	 -32.2562 	 
H 	 -56.386 	 2.59758 	 -32.5032 	 
H 	 -54.91 	 2.11544 	 -33.21 	 
C 	 -55.6815 	 0.766489 	 -31.6184 	 
H 	 -56.2459 	 0.856426 	 -30.6915 	 
H 	 -56.2221 	 0.101411 	 -32.3323 	 
H 	 -54.7608 	 0.265014 	 -31.5042 	 
S 	 -51.7129 	 7.86094 	 -34.219 	 
C 	 -50.0586 	 8.46107 	 -34.1137 	 
C 	 -49.3078 	 7.69058 	 -33.2665 	 
C 	 -50.0777 	 6.63248 	 -32.6718 	 
C 	 -51.42 	 6.70577 	 -32.9872 	 
H 	 -48.2474 	 7.96046 	 -33.0502 	 
C 	 -49.5344 	 5.71586 	 -31.59 	 
H 	 -48.9505 	 5.04027 	 -32.1755 	 
H 	 -50.3094 	 5.15232 	 -31.0995 	 
C 	 -48.6697 	 6.44488 	 -30.559 	 
H 	 -49.2965 	 7.20422 	 -30.0491 	 
H 	 -47.8181 	 6.99981 	 -30.9548 	 
C 	 -48.1753 	 5.39825 	 -29.568 	 
H 	 -47.9172 	 4.4911 	 -30.1052 	 
H 	 -48.9448 	 5.2093 	 -28.8471 	 
H 	 -47.2466 	 5.70191 	 -29.0042 	 
H 	 -56.1052 	 5.48482 	 -31.6179 	 
H 	 -49.7082 	 9.32725 	 -34.7024 	 
