34

S 	 -0.291434 	 -19.0082 	 -103.181 	 
C 	 0.798759 	 -20.341 	 -102.929 	 
C 	 2.0761 	 -19.9005 	 -102.671 	 
C 	 2.12652 	 -18.4474 	 -102.539 	 
C 	 0.910923 	 -17.8683 	 -102.79 	 
H 	 2.99555 	 -17.8968 	 -102.246 	 
C 	 3.25568 	 -20.7788 	 -102.293 	 
H 	 3.13851 	 -21.164 	 -101.298 	 
H 	 4.07799 	 -20.1552 	 -102.072 	 
C 	 3.79073 	 -21.7296 	 -103.364 	 
H 	 3.10718 	 -22.4755 	 -103.697 	 
H 	 4.04511 	 -21.1827 	 -104.262 	 
C 	 5.00783 	 -22.4211 	 -102.817 	 
H 	 5.50414 	 -23.0628 	 -103.608 	 
H 	 5.68197 	 -21.63 	 -102.695 	 
H 	 4.82752 	 -22.922 	 -101.818 	 
S 	 0.268222 	 -15.9507 	 -104.691 	 
C 	 0.453401 	 -14.247 	 -104.334 	 
C 	 0.899747 	 -14.0607 	 -103.056 	 
C 	 0.991781 	 -15.2831 	 -102.321 	 
C 	 0.764275 	 -16.444 	 -103.07 	 
H 	 1.21018 	 -13.0834 	 -102.731 	 
C 	 1.364 	 -15.1811 	 -100.89 	 
H 	 0.725725 	 -15.8066 	 -100.268 	 
H 	 1.10707 	 -14.2002 	 -100.61 	 
C 	 2.82663 	 -15.3405 	 -100.548 	 
H 	 3.43058 	 -14.6408 	 -101.169 	 
H 	 3.22061 	 -16.3259 	 -100.817 	 
C 	 3.19028 	 -15.4582 	 -99.0155 	 
H 	 4.26463 	 -15.7413 	 -98.9938 	 
H 	 2.65123 	 -16.3232 	 -98.5166 	 
H 	 3.08788 	 -14.5265 	 -98.5518 	 
H 	 0.459627 	 -21.3945 	 -102.902 	 
H 	 0.134525 	 -13.4229 	 -104.957 	 
