34

S 	 -34.3905 	 10.6557 	 12.3269 	 
C 	 -34.5302 	 11.7252 	 10.9592 	 
C 	 -33.2529 	 12.2143 	 10.5516 	 
C 	 -32.232 	 11.519 	 11.3325 	 
C 	 -32.6786 	 10.6625 	 12.2846 	 
H 	 -31.1455 	 11.6194 	 11.2946 	 
C 	 -32.9651 	 13.4453 	 9.66239 	 
H 	 -33.5081 	 13.3209 	 8.76549 	 
H 	 -31.8768 	 13.3731 	 9.3571 	 
C 	 -33.3359 	 14.7851 	 10.3584 	 
H 	 -34.4074 	 14.79 	 10.7185 	 
H 	 -32.7463 	 14.9594 	 11.3098 	 
C 	 -33.0562 	 15.9306 	 9.35413 	 
H 	 -33.5328 	 15.515 	 8.3867 	 
H 	 -33.5616 	 16.8871 	 9.66381 	 
H 	 -32.0139 	 16.1929 	 9.05127 	 
S 	 -30.9846 	 8.54131 	 12.2455 	 
C 	 -30.1573 	 8.08704 	 13.7007 	 
C 	 -30.5264 	 8.74316 	 14.7995 	 
C 	 -31.5222 	 9.72785 	 14.495 	 
C 	 -31.898 	 9.73049 	 13.1591 	 
H 	 -30.0457 	 8.5471 	 15.6958 	 
C 	 -32.2201 	 10.594 	 15.4958 	 
H 	 -32.1594 	 10.0824 	 16.4477 	 
H 	 -33.2376 	 10.5913 	 15.0677 	 
C 	 -31.6548 	 12.0482 	 15.7263 	 
H 	 -31.4248 	 12.586 	 14.7734 	 
H 	 -30.7609 	 12.0436 	 16.2713 	 
C 	 -32.5622 	 12.833 	 16.583 	 
H 	 -32.6896 	 12.2251 	 17.4262 	 
H 	 -33.5113 	 13.0013 	 16.1171 	 
H 	 -32.2362 	 13.7842 	 16.9818 	 
H 	 -35.4379 	 12.1912 	 10.6236 	 
H 	 -29.4467 	 7.30745 	 13.7953 	 
