34

S 	 -34.6251 	 10.355 	 12.5209 	 
C 	 -35.1135 	 12.0299 	 12.1219 	 
C 	 -34.2993 	 12.4515 	 11.0331 	 
C 	 -33.2775 	 11.5223 	 10.7064 	 
C 	 -33.3395 	 10.3091 	 11.3627 	 
H 	 -32.4407 	 11.7419 	 10.0081 	 
C 	 -34.3537 	 13.834 	 10.3984 	 
H 	 -35.4008 	 14.114 	 10.3064 	 
H 	 -33.9665 	 13.7167 	 9.43539 	 
C 	 -33.6253 	 14.9425 	 11.0549 	 
H 	 -34.0463 	 15.0148 	 12.067 	 
H 	 -32.5609 	 14.8993 	 11.0933 	 
C 	 -33.8109 	 16.3103 	 10.2866 	 
H 	 -33.3653 	 17.0797 	 10.8735 	 
H 	 -33.2687 	 16.3488 	 9.33261 	 
H 	 -34.8779 	 16.5191 	 10.3242 	 
S 	 -31.6127 	 8.99888 	 9.77538 	 
C 	 -30.5915 	 7.77397 	 10.426 	 
C 	 -30.7206 	 7.68401 	 11.7831 	 
C 	 -31.6886 	 8.4972 	 12.3752 	 
C 	 -32.2971 	 9.29159 	 11.3314 	 
H 	 -29.9765 	 7.05747 	 12.3114 	 
C 	 -31.8761 	 8.65181 	 13.856 	 
H 	 -32.1955 	 9.65572 	 13.9244 	 
H 	 -30.8709 	 8.57928 	 14.3582 	 
C 	 -32.9535 	 7.628 	 14.3081 	 
H 	 -32.4949 	 6.63069 	 14.3637 	 
H 	 -33.7528 	 7.49879 	 13.5748 	 
C 	 -33.7525 	 7.95365 	 15.5921 	 
H 	 -34.3173 	 8.94284 	 15.5561 	 
H 	 -33.0128 	 7.92877 	 16.3418 	 
H 	 -34.5071 	 7.25764 	 15.8985 	 
H 	 -35.859 	 12.5275 	 12.7763 	 
H 	 -30.0257 	 7.19959 	 9.73096 	 
