34

S 	 -34.4082 	 -33.3498 	 -92.06 	 
C 	 -35.6664 	 -32.0508 	 -92.2723 	 
C 	 -35.4536 	 -30.972 	 -91.3971 	 
C 	 -34.2137 	 -31.16 	 -90.6686 	 
C 	 -33.5054 	 -32.329 	 -90.9569 	 
H 	 -33.7837 	 -30.5008 	 -90.0013 	 
C 	 -36.3163 	 -29.7495 	 -91.2164 	 
H 	 -36.125 	 -29.309 	 -90.2414 	 
H 	 -37.3613 	 -30.0664 	 -91.1769 	 
C 	 -36.2007 	 -28.5578 	 -92.2179 	 
H 	 -36.2626 	 -28.9347 	 -93.2849 	 
H 	 -37.1402 	 -27.9335 	 -92.0125 	 
C 	 -34.9189 	 -27.7024 	 -92.1103 	 
H 	 -34.0655 	 -28.381 	 -92.2221 	 
H 	 -34.7799 	 -26.8769 	 -92.7275 	 
H 	 -34.9047 	 -27.3789 	 -91.0858 	 
S 	 -31.5486 	 -34.2244 	 -90.9613 	 
C 	 -30.1859 	 -33.9799 	 -89.8867 	 
C 	 -30.0815 	 -32.6539 	 -89.3775 	 
C 	 -31.2085 	 -31.8759 	 -89.799 	 
C 	 -32.1472 	 -32.6019 	 -90.5753 	 
H 	 -29.2108 	 -32.3326 	 -88.8045 	 
C 	 -31.1838 	 -30.3723 	 -89.4917 	 
H 	 -30.2584 	 -30.1246 	 -88.8902 	 
H 	 -32.0676 	 -30.1723 	 -88.8192 	 
C 	 -31.0735 	 -29.4708 	 -90.7186 	 
H 	 -31.9972 	 -29.2491 	 -91.2101 	 
H 	 -30.4354 	 -29.8944 	 -91.4904 	 
C 	 -30.4176 	 -28.0873 	 -90.4835 	 
H 	 -29.4531 	 -28.1119 	 -90.0003 	 
H 	 -31.0558 	 -27.5005 	 -89.7626 	 
H 	 -30.4388 	 -27.5274 	 -91.3997 	 
H 	 -36.4369 	 -32.1991 	 -93.0229 	 
H 	 -29.6153 	 -34.7284 	 -89.4981 	 
