34

S 	 21.285 	 1.24897 	 -112.115 	 
C 	 20.4785 	 0.35532 	 -110.807 	 
C 	 19.0868 	 0.350478 	 -111.003 	 
C 	 18.6526 	 1.31071 	 -112.039 	 
C 	 19.7245 	 1.84995 	 -112.759 	 
H 	 17.6184 	 1.56818 	 -112.337 	 
C 	 18.0793 	 -0.427873 	 -110.168 	 
H 	 17.1482 	 0.0719556 	 -110.037 	 
H 	 18.5522 	 -0.650262 	 -109.232 	 
C 	 17.7171 	 -1.86526 	 -110.68 	 
H 	 17.2783 	 -2.51705 	 -109.855 	 
H 	 17.0801 	 -1.7191 	 -111.525 	 
C 	 19.013 	 -2.56096 	 -111.151 	 
H 	 18.7902 	 -3.57982 	 -111.418 	 
H 	 19.5904 	 -2.13441 	 -112.016 	 
H 	 19.722 	 -2.72046 	 -110.358 	 
S 	 20.0957 	 4.44157 	 -113.731 	 
C 	 19.5841 	 4.7748 	 -115.43 	 
C 	 18.8829 	 3.77373 	 -115.957 	 
C 	 18.7712 	 2.61605 	 -115.079 	 
C 	 19.5944 	 2.72717 	 -113.923 	 
H 	 18.5424 	 3.90649 	 -116.924 	 
C 	 18.038 	 1.3149 	 -115.513 	 
H 	 17.4552 	 1.75236 	 -116.376 	 
H 	 17.3017 	 1.1289 	 -114.749 	 
C 	 18.9615 	 0.104095 	 -115.821 	 
H 	 19.8314 	 0.0824215 	 -115.214 	 
H 	 19.3992 	 0.0498918 	 -116.873 	 
C 	 18.1109 	 -1.16844 	 -115.794 	 
H 	 18.7583 	 -2.01792 	 -116.128 	 
H 	 17.1757 	 -1.18254 	 -116.351 	 
H 	 17.756 	 -1.38321 	 -114.753 	 
H 	 20.8358 	 -0.22568 	 -109.998 	 
H 	 19.7373 	 5.68173 	 -115.946 	 
