34

S 	 -86.981 	 -32.7737 	 -56.7729 	 
C 	 -86.0824 	 -34.0587 	 -57.5341 	 
C 	 -85.0072 	 -33.5881 	 -58.239 	 
C 	 -84.9316 	 -32.1462 	 -58.1405 	 
C 	 -86.0116 	 -31.4654 	 -57.6015 	 
H 	 -84.1428 	 -31.5761 	 -58.5489 	 
C 	 -83.7759 	 -34.4407 	 -58.5779 	 
H 	 -83.9688 	 -35.4271 	 -58.2026 	 
H 	 -82.9743 	 -34.0006 	 -57.963 	 
C 	 -83.3687 	 -34.5068 	 -60.0113 	 
H 	 -82.7038 	 -35.251 	 -60.2267 	 
H 	 -84.2748 	 -34.6443 	 -60.5941 	 
C 	 -82.702 	 -33.2577 	 -60.6808 	 
H 	 -82.3906 	 -33.3664 	 -61.6817 	 
H 	 -83.3746 	 -32.3959 	 -60.5984 	 
H 	 -81.7796 	 -33.0146 	 -60.1127 	 
S 	 -85.53 	 -28.9973 	 -58.5983 	 
C 	 -85.2865 	 -27.6084 	 -57.5722 	 
C 	 -85.6277 	 -27.9492 	 -56.2647 	 
C 	 -85.94 	 -29.3236 	 -56.0397 	 
C 	 -85.9887 	 -30.0293 	 -57.2278 	 
H 	 -85.5073 	 -27.1215 	 -55.4908 	 
C 	 -86.0206 	 -29.9897 	 -54.6354 	 
H 	 -84.981 	 -30.2152 	 -54.3801 	 
H 	 -86.3639 	 -31.0561 	 -54.6332 	 
C 	 -86.7043 	 -29.2602 	 -53.5042 	 
H 	 -87.7559 	 -29.0024 	 -53.7043 	 
H 	 -86.2078 	 -28.3427 	 -53.285 	 
C 	 -86.5736 	 -30.1158 	 -52.1838 	 
H 	 -86.8295 	 -31.1839 	 -52.2349 	 
H 	 -87.2469 	 -29.6693 	 -51.4279 	 
H 	 -85.5998 	 -30.0696 	 -51.6478 	 
H 	 -86.3343 	 -35.092 	 -57.258 	 
H 	 -84.9471 	 -26.6277 	 -57.7545 	 
