34

S 	 -109.379 	 21.719 	 -107.891 	 
C 	 -107.819 	 21.1287 	 -108.315 	 
C 	 -107.465 	 21.4189 	 -109.573 	 
C 	 -108.539 	 22.0325 	 -110.278 	 
C 	 -109.647 	 22.2682 	 -109.533 	 
H 	 -108.485 	 22.1511 	 -111.353 	 
C 	 -106.187 	 21.0945 	 -110.211 	 
H 	 -106.405 	 20.4336 	 -111.052 	 
H 	 -105.757 	 20.3818 	 -109.493 	 
C 	 -105.171 	 22.2791 	 -110.4 	 
H 	 -105.167 	 22.8678 	 -109.437 	 
H 	 -104.138 	 21.9486 	 -110.408 	 
C 	 -105.488 	 23.2675 	 -111.541 	 
H 	 -105.385 	 22.7581 	 -112.564 	 
H 	 -106.597 	 23.5499 	 -111.416 	 
H 	 -104.933 	 24.1707 	 -111.661 	 
S 	 -111.419 	 24.2399 	 -108.838 	 
C 	 -112.303 	 25.0907 	 -110.1 	 
C 	 -112.296 	 24.2944 	 -111.239 	 
C 	 -111.43 	 23.1641 	 -111.153 	 
C 	 -110.825 	 23.033 	 -109.936 	 
H 	 -112.914 	 24.5331 	 -112.101 	 
C 	 -111.162 	 22.2803 	 -112.399 	 
H 	 -112.105 	 21.7499 	 -112.439 	 
H 	 -110.463 	 21.5486 	 -112.217 	 
C 	 -110.937 	 22.8986 	 -113.754 	 
H 	 -111.841 	 23.5334 	 -113.958 	 
H 	 -110.89 	 22.088 	 -114.51 	 
C 	 -109.612 	 23.6383 	 -113.812 	 
H 	 -109.449 	 24.4276 	 -113.117 	 
H 	 -109.359 	 24.0647 	 -114.784 	 
H 	 -108.797 	 22.9637 	 -113.566 	 
H 	 -107.186 	 20.7022 	 -107.591 	 
H 	 -112.844 	 26.0317 	 -109.932 	 
