34

S 	 -124 	 23.8201 	 -112.001 	 
C 	 -122.565 	 24.4178 	 -111.156 	 
C 	 -122.542 	 25.8317 	 -111.188 	 
C 	 -123.708 	 26.378 	 -111.84 	 
C 	 -124.584 	 25.4482 	 -112.336 	 
H 	 -123.913 	 27.3855 	 -112.01 	 
C 	 -121.479 	 26.6828 	 -110.481 	 
H 	 -121.57 	 27.6339 	 -111.009 	 
H 	 -120.395 	 26.4863 	 -110.698 	 
C 	 -121.711 	 26.9053 	 -108.966 	 
H 	 -121.536 	 26.0852 	 -108.269 	 
H 	 -120.906 	 27.5388 	 -108.69 	 
C 	 -123.014 	 27.5381 	 -108.541 	 
H 	 -122.895 	 28.1913 	 -107.763 	 
H 	 -123.461 	 28.0481 	 -109.388 	 
H 	 -123.649 	 26.7737 	 -108.132 	 
S 	 -125.523 	 24.9842 	 -114.808 	 
C 	 -127.095 	 25.5926 	 -115.4 	 
C 	 -127.564 	 26.5133 	 -114.413 	 
C 	 -126.774 	 26.632 	 -113.24 	 
C 	 -125.686 	 25.7136 	 -113.262 	 
H 	 -128.475 	 27.0451 	 -114.618 	 
C 	 -127.254 	 27.3391 	 -111.975 	 
H 	 -126.706 	 27.0495 	 -111.024 	 
H 	 -128.323 	 27.0859 	 -111.846 	 
C 	 -126.953 	 28.8702 	 -112.133 	 
H 	 -127.172 	 29.1903 	 -113.174 	 
H 	 -125.832 	 28.9053 	 -112.073 	 
C 	 -127.674 	 29.8154 	 -111.195 	 
H 	 -127.396 	 30.8945 	 -111.167 	 
H 	 -127.482 	 29.4741 	 -110.173 	 
H 	 -128.783 	 29.7906 	 -111.289 	 
H 	 -121.782 	 23.7654 	 -110.652 	 
H 	 -127.482 	 25.4538 	 -116.428 	 
