34

S 	 -96.2359 	 -25.6456 	 -61.1607 	 
C 	 -96.9197 	 -24.5821 	 -59.9592 	 
C 	 -95.8936 	 -23.753 	 -59.6199 	 
C 	 -94.6013 	 -24.1688 	 -59.9879 	 
C 	 -94.585 	 -25.3644 	 -60.6839 	 
H 	 -93.6001 	 -23.811 	 -59.7456 	 
C 	 -96.0556 	 -22.579 	 -58.819 	 
H 	 -96.3079 	 -21.7489 	 -59.3665 	 
H 	 -95.1207 	 -22.3863 	 -58.2937 	 
C 	 -97.0008 	 -22.7606 	 -57.5892 	 
H 	 -97.9739 	 -23.1229 	 -58.0051 	 
H 	 -96.5117 	 -23.5176 	 -56.9359 	 
C 	 -97.1958 	 -21.4733 	 -56.8022 	 
H 	 -98.0104 	 -21.6524 	 -56.0469 	 
H 	 -96.3957 	 -20.997 	 -56.3301 	 
H 	 -97.5973 	 -20.6478 	 -57.354 	 
S 	 -93.2589 	 -26.1548 	 -62.8611 	 
C 	 -91.6042 	 -26.6524 	 -62.7327 	 
C 	 -91.2327 	 -26.7887 	 -61.4101 	 
C 	 -92.3008 	 -26.5838 	 -60.5067 	 
C 	 -93.4805 	 -26.1007 	 -61.1685 	 
H 	 -90.3253 	 -27.2866 	 -61.2245 	 
C 	 -92.0964 	 -26.729 	 -59.0104 	 
H 	 -92.9717 	 -26.2671 	 -58.5307 	 
H 	 -91.2428 	 -26.1184 	 -58.6043 	 
C 	 -92.0271 	 -28.1566 	 -58.5557 	 
H 	 -91.0214 	 -28.4843 	 -58.7552 	 
H 	 -92.667 	 -28.7755 	 -59.0817 	 
C 	 -92.1504 	 -28.1762 	 -56.9814 	 
H 	 -91.4003 	 -27.487 	 -56.532 	 
H 	 -92.108 	 -29.2428 	 -56.6209 	 
H 	 -93.1396 	 -27.6233 	 -56.7334 	 
H 	 -97.9359 	 -24.491 	 -59.7907 	 
H 	 -90.8787 	 -26.7241 	 -63.5125 	 
