34

S 	 -98.0781 	 2.42228 	 -118.723 	 
C 	 -99.0986 	 1.8647 	 -120.045 	 
C 	 -100.437 	 1.87591 	 -119.717 	 
C 	 -100.656 	 2.50927 	 -118.452 	 
C 	 -99.4761 	 2.66978 	 -117.742 	 
H 	 -101.615 	 2.67944 	 -118.014 	 
C 	 -101.541 	 1.46656 	 -120.598 	 
H 	 -101.075 	 1.12933 	 -121.485 	 
H 	 -102.114 	 2.29096 	 -120.839 	 
C 	 -102.459 	 0.285124 	 -120.134 	 
H 	 -103.081 	 0.577602 	 -119.294 	 
H 	 -103.143 	 0.0722075 	 -120.936 	 
C 	 -101.65 	 -0.903449 	 -119.733 	 
H 	 -100.929 	 -1.1229 	 -120.521 	 
H 	 -100.99 	 -0.693232 	 -118.903 	 
H 	 -102.28 	 -1.78577 	 -119.575 	 
S 	 -98.1652 	 4.57241 	 -116.209 	 
C 	 -98.4602 	 4.72035 	 -114.556 	 
C 	 -99.2165 	 3.65592 	 -114.098 	 
C 	 -99.8108 	 2.94188 	 -115.198 	 
C 	 -99.2493 	 3.18811 	 -116.387 	 
H 	 -99.4903 	 3.62105 	 -113.066 	 
C 	 -100.894 	 1.87038 	 -114.922 	 
H 	 -100.429 	 1.29434 	 -114.118 	 
H 	 -101.003 	 1.2915 	 -115.859 	 
C 	 -102.273 	 2.35135 	 -114.379 	 
H 	 -102.721 	 3.06981 	 -115.087 	 
H 	 -102.072 	 3.01423 	 -113.525 	 
C 	 -103.239 	 1.1719 	 -113.923 	 
H 	 -103.754 	 0.647699 	 -114.753 	 
H 	 -103.909 	 1.65891 	 -113.232 	 
H 	 -102.624 	 0.390715 	 -113.375 	 
H 	 -98.7607 	 1.66971 	 -121.015 	 
H 	 -97.9916 	 5.54808 	 -113.989 	 
