34

S 	 -104.465 	 19.8516 	 -118.665 	 
C 	 -102.714 	 19.4736 	 -118.485 	 
C 	 -102.181 	 18.9215 	 -119.685 	 
C 	 -103.22 	 18.812 	 -120.637 	 
C 	 -104.519 	 19.1502 	 -120.24 	 
H 	 -103.094 	 18.2395 	 -121.476 	 
C 	 -100.776 	 18.5715 	 -119.911 	 
H 	 -100.115 	 18.7503 	 -119.109 	 
H 	 -100.394 	 19.3358 	 -120.521 	 
C 	 -100.605 	 17.2793 	 -120.675 	 
H 	 -100.838 	 17.2952 	 -121.72 	 
H 	 -99.5669 	 16.9321 	 -120.609 	 
C 	 -101.291 	 16.0334 	 -120.091 	 
H 	 -101.205 	 15.1838 	 -120.751 	 
H 	 -100.936 	 15.8932 	 -119.054 	 
H 	 -102.366 	 16.1621 	 -119.891 	 
S 	 -107.061 	 20.3716 	 -120.879 	 
C 	 -107.903 	 19.7673 	 -122.267 	 
C 	 -107.298 	 18.7063 	 -122.839 	 
C 	 -106.156 	 18.2664 	 -122.107 	 
C 	 -105.746 	 19.0578 	 -121.031 	 
H 	 -107.743 	 18.2164 	 -123.639 	 
C 	 -105.598 	 16.8794 	 -122.462 	 
H 	 -104.837 	 17.0264 	 -123.225 	 
H 	 -106.368 	 16.3189 	 -122.901 	 
C 	 -105.145 	 16.0007 	 -121.253 	 
H 	 -105.802 	 15.9969 	 -120.404 	 
H 	 -104.36 	 16.4268 	 -120.669 	 
C 	 -104.771 	 14.5725 	 -121.737 	 
H 	 -105.665 	 14.0671 	 -122.181 	 
H 	 -104.563 	 14.0203 	 -120.817 	 
H 	 -103.864 	 14.569 	 -122.404 	 
H 	 -102.114 	 19.7151 	 -117.641 	 
H 	 -108.789 	 20.2486 	 -122.667 	 
