34

S 	 -109.224 	 51.0509 	 -6.97984 	 
C 	 -109.314 	 52.6999 	 -7.51698 	 
C 	 -108.018 	 53.2414 	 -7.60331 	 
C 	 -106.964 	 52.3168 	 -7.31074 	 
C 	 -107.433 	 51.0132 	 -7.07578 	 
H 	 -105.922 	 52.5014 	 -7.2297 	 
C 	 -107.717 	 54.6073 	 -8.17362 	 
H 	 -107.266 	 55.1356 	 -7.30517 	 
H 	 -108.701 	 55.1494 	 -8.38216 	 
C 	 -106.663 	 54.7681 	 -9.27206 	 
H 	 -106.334 	 55.8394 	 -9.40255 	 
H 	 -105.684 	 54.3606 	 -9.00794 	 
C 	 -107.073 	 54.2371 	 -10.6949 	 
H 	 -107.965 	 54.8203 	 -11.011 	 
H 	 -106.218 	 54.3372 	 -11.3383 	 
H 	 -107.275 	 53.1096 	 -10.6921 	 
S 	 -106.331 	 49.2021 	 -5.28313 	 
C 	 -105.013 	 48.2173 	 -5.78575 	 
C 	 -104.551 	 48.6204 	 -7.0285 	 
C 	 -105.51 	 49.4503 	 -7.70606 	 
C 	 -106.498 	 49.9067 	 -6.83545 	 
H 	 -103.652 	 48.273 	 -7.4305 	 
C 	 -105.177 	 50.1321 	 -9.02465 	 
H 	 -104.195 	 50.6826 	 -8.8898 	 
H 	 -105.952 	 50.8977 	 -9.30182 	 
C 	 -104.997 	 49.2214 	 -10.1989 	 
H 	 -104.297 	 48.4163 	 -9.96883 	 
H 	 -104.503 	 49.7331 	 -11.0786 	 
C 	 -106.309 	 48.524 	 -10.6459 	 
H 	 -106.28 	 47.6239 	 -11.3094 	 
H 	 -107.031 	 49.1974 	 -11.0351 	 
H 	 -106.905 	 48.2715 	 -9.83428 	 
H 	 -110.165 	 53.2832 	 -7.81708 	 
H 	 -104.39 	 47.5455 	 -5.2491 	 
