34

S 	 -38.6186 	 -10.5264 	 18.9749 	 
C 	 -38.3547 	 -12.1813 	 19.3632 	 
C 	 -38.0554 	 -12.9544 	 18.2868 	 
C 	 -37.8989 	 -12.125 	 17.1086 	 
C 	 -38.1124 	 -10.7888 	 17.3016 	 
H 	 -37.5512 	 -12.4472 	 16.1855 	 
C 	 -37.8653 	 -14.482 	 18.2811 	 
H 	 -38.8263 	 -14.864 	 18.1629 	 
H 	 -37.485 	 -14.8939 	 19.2112 	 
C 	 -36.9369 	 -15.0811 	 17.2152 	 
H 	 -37.0926 	 -16.1319 	 17.2562 	 
H 	 -37.032 	 -14.6136 	 16.2647 	 
C 	 -35.4974 	 -14.735 	 17.6387 	 
H 	 -35.3652 	 -15.0877 	 18.6693 	 
H 	 -34.7404 	 -15.0678 	 16.9194 	 
H 	 -35.4288 	 -13.631 	 17.6649 	 
S 	 -39.2819 	 -8.4422 	 16.6564 	 
C 	 -38.6288 	 -7.49203 	 15.2954 	 
C 	 -37.6756 	 -8.14878 	 14.6263 	 
C 	 -37.4831 	 -9.45346 	 15.159 	 
C 	 -38.2085 	 -9.67898 	 16.3315 	 
H 	 -37.2702 	 -7.5931 	 13.8464 	 
C 	 -36.4798 	 -10.3687 	 14.4624 	 
H 	 -37.1723 	 -10.6431 	 13.6063 	 
H 	 -36.1625 	 -11.2349 	 14.9398 	 
C 	 -35.3008 	 -9.66295 	 13.8158 	 
H 	 -35.6254 	 -9.02922 	 12.9666 	 
H 	 -34.7077 	 -10.4447 	 13.2937 	 
C 	 -34.3321 	 -8.96739 	 14.8474 	 
H 	 -33.4208 	 -9.53698 	 15.1128 	 
H 	 -34.9208 	 -8.89703 	 15.775 	 
H 	 -34.1443 	 -7.91532 	 14.5844 	 
H 	 -38.5081 	 -12.5864 	 20.3536 	 
H 	 -38.9516 	 -6.57034 	 14.9721 	 
