34

S 	 -114.687 	 14.3881 	 -117.667 	 
C 	 -113.344 	 15.4481 	 -117.733 	 
C 	 -113.7 	 16.8018 	 -117.694 	 
C 	 -115.053 	 16.9427 	 -117.362 	 
C 	 -115.713 	 15.7332 	 -117.217 	 
H 	 -115.632 	 17.8631 	 -117.319 	 
C 	 -112.738 	 17.9912 	 -117.987 	 
H 	 -112.072 	 18.0302 	 -117.095 	 
H 	 -113.264 	 18.9584 	 -117.945 	 
C 	 -112.055 	 17.8858 	 -119.345 	 
H 	 -111.855 	 16.8726 	 -119.515 	 
H 	 -112.795 	 18.185 	 -120.186 	 
C 	 -110.782 	 18.6176 	 -119.546 	 
H 	 -110.931 	 19.6196 	 -119.894 	 
H 	 -110.291 	 18.5841 	 -118.571 	 
H 	 -110.099 	 18.1108 	 -120.295 	 
S 	 -118.081 	 14.6289 	 -118.169 	 
C 	 -119.586 	 15.1048 	 -117.377 	 
C 	 -119.353 	 15.5337 	 -116.076 	 
C 	 -117.97 	 15.9465 	 -115.937 	 
C 	 -117.163 	 15.5898 	 -117.042 	 
H 	 -120.192 	 15.575 	 -115.42 	 
C 	 -117.454 	 16.6393 	 -114.776 	 
H 	 -116.391 	 17.0133 	 -114.981 	 
H 	 -117.195 	 15.8431 	 -113.991 	 
C 	 -118.268 	 17.7525 	 -114.139 	 
H 	 -117.788 	 18.2088 	 -113.169 	 
H 	 -119.246 	 17.4599 	 -113.758 	 
C 	 -118.455 	 18.9685 	 -114.969 	 
H 	 -119.22 	 19.5713 	 -114.429 	 
H 	 -118.773 	 18.6952 	 -115.965 	 
H 	 -117.556 	 19.5003 	 -115.008 	 
H 	 -112.303 	 15.1806 	 -117.914 	 
H 	 -120.606 	 14.7872 	 -117.652 	 
