34

S 	 -61.6958 	 10.5376 	 -87.8605 	 
C 	 -60.2093 	 10.2705 	 -88.7222 	 
C 	 -59.2188 	 9.63232 	 -87.9079 	 
C 	 -59.6904 	 9.38161 	 -86.5962 	 
C 	 -60.9816 	 9.77301 	 -86.3797 	 
H 	 -59.0906 	 8.97519 	 -85.8252 	 
C 	 -57.8476 	 9.26459 	 -88.3283 	 
H 	 -57.9112 	 8.39771 	 -88.9625 	 
H 	 -57.3532 	 8.95707 	 -87.4271 	 
C 	 -56.9303 	 10.2962 	 -88.9723 	 
H 	 -57.1094 	 11.254 	 -88.5874 	 
H 	 -55.8588 	 10.0323 	 -88.7258 	 
C 	 -56.9676 	 10.2102 	 -90.4895 	 
H 	 -56.8655 	 9.21128 	 -90.893 	 
H 	 -57.8676 	 10.4508 	 -91.0215 	 
H 	 -56.1333 	 10.797 	 -90.7554 	 
S 	 -62.2472 	 11.2404 	 -84.416 	 
C 	 -62.9177 	 10.3708 	 -82.9891 	 
C 	 -62.6922 	 9.00494 	 -83.0912 	 
C 	 -61.9096 	 8.66468 	 -84.2208 	 
C 	 -61.5953 	 9.74287 	 -85.042 	 
H 	 -63.0655 	 8.33299 	 -82.3202 	 
C 	 -61.507 	 7.23618 	 -84.4612 	 
H 	 -61.8719 	 6.63614 	 -83.5683 	 
H 	 -60.4043 	 7.10955 	 -84.4093 	 
C 	 -62.1906 	 6.68531 	 -85.7044 	 
H 	 -61.893 	 5.69029 	 -85.9418 	 
H 	 -61.9525 	 7.18721 	 -86.6473 	 
C 	 -63.7571 	 6.60865 	 -85.4907 	 
H 	 -64.2129 	 7.60958 	 -85.2962 	 
H 	 -63.9968 	 5.9516 	 -84.644 	 
H 	 -64.1831 	 6.19454 	 -86.4017 	 
H 	 -60.1109 	 10.6866 	 -89.7516 	 
H 	 -63.3557 	 10.75 	 -82.0865 	 
