34

S 	 -96.2025 	 13.855 	 -117.788 	 
C 	 -94.5299 	 14.4674 	 -117.749 	 
C 	 -93.6817 	 13.4825 	 -118.229 	 
C 	 -94.3906 	 12.2465 	 -118.462 	 
C 	 -95.7248 	 12.3791 	 -118.452 	 
H 	 -93.8786 	 11.2815 	 -118.769 	 
C 	 -92.1859 	 13.6085 	 -118.283 	 
H 	 -91.9128 	 14.4776 	 -118.824 	 
H 	 -91.7186 	 12.7611 	 -118.8 	 
C 	 -91.5333 	 13.7326 	 -116.878 	 
H 	 -90.4588 	 14.1528 	 -116.954 	 
H 	 -92.0735 	 14.4719 	 -116.332 	 
C 	 -91.4415 	 12.4765 	 -116.052 	 
H 	 -90.9272 	 11.6605 	 -116.661 	 
H 	 -90.7869 	 12.672 	 -115.232 	 
H 	 -92.4176 	 12.1844 	 -115.585 	 
S 	 -97.7256 	 10.8257 	 -117.495 	 
C 	 -98.5813 	 9.81903 	 -118.68 	 
C 	 -97.9892 	 9.82963 	 -119.926 	 
C 	 -96.8509 	 10.6674 	 -120.017 	 
C 	 -96.6891 	 11.38 	 -118.797 	 
H 	 -98.3346 	 9.2353 	 -120.742 	 
C 	 -95.9489 	 10.7976 	 -121.235 	 
H 	 -95.997 	 9.93371 	 -121.944 	 
H 	 -94.9267 	 10.8119 	 -120.879 	 
C 	 -96.1646 	 12.0826 	 -121.985 	 
H 	 -95.9866 	 12.8913 	 -121.207 	 
H 	 -97.1898 	 12.2334 	 -122.29 	 
C 	 -95.2664 	 12.2146 	 -123.196 	 
H 	 -95.666 	 11.607 	 -124.007 	 
H 	 -94.3257 	 11.8536 	 -122.906 	 
H 	 -95.0718 	 13.248 	 -123.46 	 
H 	 -94.2869 	 15.3957 	 -117.453 	 
H 	 -99.5171 	 9.31867 	 -118.476 	 
