34

S 	 -106.867 	 2.03897 	 -114.617 	 
C 	 -108.341 	 2.93551 	 -114.931 	 
C 	 -109.493 	 2.14323 	 -114.875 	 
C 	 -109.04 	 0.74387 	 -114.968 	 
C 	 -107.702 	 0.530476 	 -114.681 	 
H 	 -109.749 	 -0.0667823 	 -115.016 	 
C 	 -110.903 	 2.63891 	 -115.105 	 
H 	 -111.227 	 2.22693 	 -116.095 	 
H 	 -110.931 	 3.71459 	 -115.327 	 
C 	 -111.858 	 2.43721 	 -113.957 	 
H 	 -111.733 	 1.43471 	 -113.585 	 
H 	 -111.723 	 3.15571 	 -113.153 	 
C 	 -113.296 	 2.5839 	 -114.463 	 
H 	 -113.402 	 3.64406 	 -114.842 	 
H 	 -113.543 	 1.81808 	 -115.163 	 
H 	 -113.997 	 2.37846 	 -113.647 	 
S 	 -105.468 	 -0.816165 	 -115.695 	 
C 	 -105.371 	 -2.51289 	 -115.532 	 
C 	 -106.435 	 -3.02882 	 -114.784 	 
C 	 -107.383 	 -2.00919 	 -114.398 	 
C 	 -106.959 	 -0.739213 	 -114.704 	 
H 	 -106.589 	 -4.10609 	 -114.779 	 
C 	 -108.741 	 -2.30118 	 -113.592 	 
H 	 -109.376 	 -2.65093 	 -114.315 	 
H 	 -109.135 	 -1.3755 	 -113.206 	 
C 	 -108.529 	 -3.46024 	 -112.564 	 
H 	 -108.597 	 -4.42203 	 -113.148 	 
H 	 -109.329 	 -3.51982 	 -111.864 	 
C 	 -107.199 	 -3.44259 	 -111.782 	 
H 	 -107.234 	 -2.73717 	 -110.938 	 
H 	 -106.293 	 -3.14134 	 -112.299 	 
H 	 -106.991 	 -4.49228 	 -111.322 	 
H 	 -108.378 	 4.04421 	 -115.016 	 
H 	 -104.462 	 -3.00309 	 -115.865 	 
