34

S 	 -147.755 	 5.2999 	 10.2963 	 
C 	 -147.298 	 4.55267 	 8.8012 	 
C 	 -146.177 	 5.14969 	 8.29595 	 
C 	 -145.785 	 6.27492 	 9.07894 	 
C 	 -146.61 	 6.51154 	 10.1796 	 
H 	 -144.846 	 6.89574 	 8.80981 	 
C 	 -145.356 	 4.58557 	 7.16362 	 
H 	 -144.933 	 5.39881 	 6.64222 	 
H 	 -146.058 	 4.24974 	 6.50193 	 
C 	 -144.387 	 3.50983 	 7.64643 	 
H 	 -143.653 	 3.37869 	 6.86095 	 
H 	 -143.865 	 3.89789 	 8.55775 	 
C 	 -145.007 	 2.18051 	 7.86218 	 
H 	 -145.928 	 2.25604 	 8.4878 	 
H 	 -145.276 	 1.58405 	 6.94243 	 
H 	 -144.346 	 1.55489 	 8.44948 	 
S 	 -145.7 	 7.17543 	 12.7965 	 
C 	 -146.022 	 8.76113 	 13.4521 	 
C 	 -146.52 	 9.5415 	 12.4942 	 
C 	 -146.849 	 8.88743 	 11.2538 	 
C 	 -146.515 	 7.50486 	 11.2326 	 
H 	 -146.667 	 10.5642 	 12.6544 	 
C 	 -147.425 	 9.68217 	 10.0561 	 
H 	 -147.392 	 9.09177 	 9.1323 	 
H 	 -146.58 	 10.4504 	 9.7949 	 
C 	 -148.879 	 10.1602 	 10.2312 	 
H 	 -149.108 	 10.6547 	 11.2184 	 
H 	 -149.553 	 9.33545 	 10.2363 	 
C 	 -149.382 	 11.1656 	 9.12164 	 
H 	 -149.124 	 12.1116 	 9.41217 	 
H 	 -150.493 	 11.2927 	 9.09952 	 
H 	 -149.054 	 10.9492 	 8.15834 	 
H 	 -147.657 	 3.56383 	 8.42418 	 
H 	 -145.723 	 9.16828 	 14.4356 	 
