34

S 	 -128.467 	 61.5144 	 -57.7581 	 
C 	 -127.898 	 62.9636 	 -58.7022 	 
C 	 -126.742 	 62.648 	 -59.4262 	 
C 	 -126.457 	 61.2398 	 -59.3219 	 
C 	 -127.279 	 60.5115 	 -58.4853 	 
H 	 -125.689 	 60.6665 	 -59.751 	 
C 	 -125.949 	 63.7133 	 -60.2181 	 
H 	 -126.308 	 64.7184 	 -59.8877 	 
H 	 -126.387 	 63.581 	 -61.1779 	 
C 	 -124.415 	 63.6221 	 -60.0384 	 
H 	 -124.013 	 62.7552 	 -60.4839 	 
H 	 -123.937 	 64.4213 	 -60.6586 	 
C 	 -123.985 	 63.8175 	 -58.5901 	 
H 	 -122.868 	 63.797 	 -58.4616 	 
H 	 -124.256 	 64.815 	 -58.1806 	 
H 	 -124.41 	 63.1286 	 -57.9351 	 
S 	 -128.529 	 58.2221 	 -59.1686 	 
C 	 -127.741 	 56.6802 	 -58.888 	 
C 	 -126.486 	 56.8262 	 -58.3822 	 
C 	 -126.179 	 58.176 	 -57.9435 	 
C 	 -127.24 	 59.0486 	 -58.3022 	 
H 	 -125.865 	 55.9318 	 -58.2996 	 
C 	 -124.861 	 58.6106 	 -57.3191 	 
H 	 -124.68 	 59.6003 	 -57.6898 	 
H 	 -124.04 	 57.9561 	 -57.6254 	 
C 	 -124.89 	 58.8277 	 -55.7568 	 
H 	 -125.242 	 57.9398 	 -55.2319 	 
H 	 -125.702 	 59.519 	 -55.5729 	 
C 	 -123.655 	 59.3925 	 -55.2494 	 
H 	 -123.452 	 60.4434 	 -55.5594 	 
H 	 -122.769 	 58.8096 	 -55.4872 	 
H 	 -123.702 	 59.4269 	 -54.1778 	 
H 	 -128.373 	 63.8865 	 -58.6632 	 
H 	 -128.077 	 55.6991 	 -59.2757 	 
