34

S 	 -122.807 	 62.5228 	 -35.1649 	 
C 	 -122.957 	 64.2789 	 -34.9046 	 
C 	 -122.106 	 64.9004 	 -35.7882 	 
C 	 -121.345 	 64.0517 	 -36.5663 	 
C 	 -121.514 	 62.7503 	 -36.3414 	 
H 	 -120.539 	 64.2818 	 -37.2698 	 
C 	 -122.024 	 66.3569 	 -36.0066 	 
H 	 -121.13 	 66.698 	 -35.4207 	 
H 	 -122.884 	 66.7947 	 -35.5191 	 
C 	 -122.191 	 66.8792 	 -37.5014 	 
H 	 -122.453 	 67.9548 	 -37.4065 	 
H 	 -121.253 	 66.6453 	 -37.9262 	 
C 	 -123.19 	 66.1572 	 -38.4671 	 
H 	 -122.896 	 65.2207 	 -38.8636 	 
H 	 -124.051 	 66.068 	 -37.9114 	 
H 	 -123.416 	 66.7432 	 -39.4098 	 
S 	 -121.969 	 60.4169 	 -37.5829 	 
C 	 -120.677 	 59.7884 	 -38.6348 	 
C 	 -119.46 	 60.3459 	 -38.3893 	 
C 	 -119.523 	 61.4377 	 -37.4289 	 
C 	 -120.861 	 61.6878 	 -37.0503 	 
H 	 -118.636 	 59.911 	 -38.9172 	 
C 	 -118.28 	 62.2935 	 -37.1781 	 
H 	 -118.371 	 62.9615 	 -36.2959 	 
H 	 -118.226 	 62.9516 	 -38.0582 	 
C 	 -116.98 	 61.5349 	 -36.9379 	 
H 	 -116.851 	 61.084 	 -37.9481 	 
H 	 -117.13 	 60.7077 	 -36.1812 	 
C 	 -115.783 	 62.4462 	 -36.7529 	 
H 	 -115.824 	 63.0213 	 -35.7992 	 
H 	 -115.772 	 63.13 	 -37.5698 	 
H 	 -114.726 	 62.0268 	 -36.7901 	 
H 	 -123.685 	 64.7663 	 -34.2869 	 
H 	 -120.88 	 59.0115 	 -39.3333 	 
