34

S 	 -112.558 	 17.3763 	 -116.974 	 
C 	 -112.579 	 18.5768 	 -115.623 	 
C 	 -111.856 	 19.7218 	 -115.888 	 
C 	 -111.412 	 19.7278 	 -117.221 	 
C 	 -111.566 	 18.5206 	 -117.864 	 
H 	 -110.768 	 20.4684 	 -117.7 	 
C 	 -111.523 	 20.9474 	 -115.006 	 
H 	 -112.214 	 20.9467 	 -114.131 	 
H 	 -111.938 	 21.778 	 -115.558 	 
C 	 -110.048 	 21.1374 	 -114.542 	 
H 	 -109.316 	 21.1897 	 -115.394 	 
H 	 -109.946 	 22.0351 	 -113.939 	 
C 	 -109.551 	 19.9929 	 -113.654 	 
H 	 -108.435 	 20.03 	 -113.677 	 
H 	 -109.957 	 20.1629 	 -112.592 	 
H 	 -109.984 	 18.9806 	 -113.928 	 
S 	 -111.927 	 17.4938 	 -120.362 	 
C 	 -110.649 	 17.4825 	 -121.555 	 
C 	 -109.443 	 17.6656 	 -120.957 	 
C 	 -109.596 	 18.1566 	 -119.596 	 
C 	 -110.891 	 18.0734 	 -119.089 	 
H 	 -108.45 	 17.5107 	 -121.46 	 
C 	 -108.342 	 18.4754 	 -118.747 	 
H 	 -108.768 	 18.452 	 -117.721 	 
H 	 -108.103 	 19.503 	 -118.999 	 
C 	 -107.228 	 17.4162 	 -118.847 	 
H 	 -106.814 	 17.3524 	 -119.773 	 
H 	 -107.587 	 16.4207 	 -118.635 	 
C 	 -106.073 	 17.6877 	 -117.794 	 
H 	 -106.282 	 17.7799 	 -116.781 	 
H 	 -105.603 	 18.6116 	 -118.126 	 
H 	 -105.266 	 16.9734 	 -117.81 	 
H 	 -112.993 	 18.4007 	 -114.652 	 
H 	 -110.849 	 17.194 	 -122.604 	 
