34

S 	 24.6129 	 3.42202 	 -113.277 	 
C 	 23.0703 	 4.10647 	 -113.864 	 
C 	 22.0049 	 3.42216 	 -113.25 	 
C 	 22.4449 	 2.45503 	 -112.299 	 
C 	 23.8247 	 2.31262 	 -112.219 	 
H 	 21.7637 	 1.87452 	 -111.656 	 
C 	 20.5143 	 3.62887 	 -113.554 	 
H 	 20.2365 	 4.62825 	 -113.256 	 
H 	 19.9295 	 3.05224 	 -112.882 	 
C 	 20.1751 	 3.42058 	 -115.049 	 
H 	 20.9173 	 3.92827 	 -115.769 	 
H 	 20.2904 	 2.32946 	 -115.272 	 
C 	 18.7951 	 4.01319 	 -115.366 	 
H 	 18.0113 	 3.5168 	 -114.757 	 
H 	 18.8015 	 5.09536 	 -115.046 	 
H 	 18.5151 	 3.97524 	 -116.39 	 
S 	 25.8829 	 0.32401 	 -112.208 	 
C 	 26.015 	 -0.648221 	 -110.83 	 
C 	 25.1527 	 -0.200669 	 -109.859 	 
C 	 24.3784 	 0.979299 	 -110.185 	 
C 	 24.5984 	 1.35203 	 -111.471 	 
H 	 25.2662 	 -0.763687 	 -108.864 	 
C 	 23.4519 	 1.59999 	 -109.211 	 
H 	 23.3527 	 0.924477 	 -108.417 	 
H 	 22.4571 	 1.71883 	 -109.572 	 
C 	 23.8601 	 3.04616 	 -108.802 	 
H 	 23.8242 	 3.62024 	 -109.705 	 
H 	 24.9156 	 3.06491 	 -108.363 	 
C 	 22.9762 	 3.765 	 -107.703 	 
H 	 23.2714 	 4.79291 	 -107.577 	 
H 	 23.1005 	 3.31939 	 -106.734 	 
H 	 21.9646 	 3.80766 	 -107.863 	 
H 	 22.918 	 4.91508 	 -114.484 	 
H 	 26.7457 	 -1.45598 	 -110.694 	 
