34

S 	 -106.558 	 36.1151 	 -15.365 	 
C 	 -105.066 	 35.274 	 -15.1147 	 
C 	 -104.75 	 34.4645 	 -16.1724 	 
C 	 -105.608 	 34.6525 	 -17.2834 	 
C 	 -106.628 	 35.5297 	 -16.997 	 
H 	 -105.386 	 34.1761 	 -18.185 	 
C 	 -103.695 	 33.4363 	 -16.2604 	 
H 	 -103 	 33.6316 	 -15.4363 	 
H 	 -103.195 	 33.7123 	 -17.1791 	 
C 	 -104.179 	 31.9513 	 -16.5206 	 
H 	 -104.9 	 31.6402 	 -15.747 	 
H 	 -104.797 	 31.995 	 -17.405 	 
C 	 -102.882 	 31.0857 	 -16.6527 	 
H 	 -102.188 	 31.4919 	 -17.3521 	 
H 	 -102.379 	 31.0244 	 -15.6736 	 
H 	 -103.041 	 30.0782 	 -17.1864 	 
S 	 -108.136 	 37.7569 	 -17.4972 	 
C 	 -109.147 	 37.7566 	 -18.7642 	 
C 	 -109.107 	 36.647 	 -19.5686 	 
C 	 -108.128 	 35.6956 	 -19.1298 	 
C 	 -107.568 	 36.1237 	 -17.8938 	 
H 	 -109.823 	 36.5363 	 -20.3825 	 
C 	 -108.009 	 34.293 	 -19.717 	 
H 	 -108.996 	 33.8262 	 -19.6212 	 
H 	 -107.416 	 33.5665 	 -19.1306 	 
C 	 -107.303 	 34.2355 	 -21.0229 	 
H 	 -106.247 	 34.4545 	 -20.8642 	 
H 	 -107.754 	 34.7975 	 -21.8029 	 
C 	 -107.401 	 32.7834 	 -21.5621 	 
H 	 -107.052 	 32.8294 	 -22.6621 	 
H 	 -108.46 	 32.4206 	 -21.4702 	 
H 	 -106.683 	 32.1461 	 -21.0594 	 
H 	 -104.673 	 35.3398 	 -14.1191 	 
H 	 -109.86 	 38.5299 	 -19.0521 	 
