34

S 	 -37.3579 	 10.23 	 0.65602 	 
C 	 -37.8984 	 9.19519 	 -0.628077 	 
C 	 -37.945 	 7.85698 	 -0.282258 	 
C 	 -37.7236 	 7.66929 	 1.10247 	 
C 	 -37.3909 	 8.82685 	 1.78472 	 
H 	 -37.6355 	 6.72355 	 1.69847 	 
C 	 -38.096 	 6.71483 	 -1.21241 	 
H 	 -38.6427 	 6.94456 	 -2.13722 	 
H 	 -38.8051 	 5.99131 	 -0.723363 	 
C 	 -36.8649 	 5.91082 	 -1.5563 	 
H 	 -36.5345 	 5.29719 	 -0.679926 	 
H 	 -37.1939 	 5.17959 	 -2.36238 	 
C 	 -35.6105 	 6.63379 	 -2.04811 	 
H 	 -34.8642 	 5.85806 	 -2.42661 	 
H 	 -35.9465 	 7.4746 	 -2.74292 	 
H 	 -35.1248 	 7.26253 	 -1.3481 	 
S 	 -35.6425 	 10.0037 	 3.60992 	 
C 	 -36.0503 	 9.92302 	 5.30462 	 
C 	 -37.0582 	 9.05535 	 5.56098 	 
C 	 -37.5866 	 8.44509 	 4.35259 	 
C 	 -37.005 	 8.91614 	 3.21579 	 
H 	 -37.4467 	 8.96177 	 6.57541 	 
C 	 -38.7839 	 7.51636 	 4.43647 	 
H 	 -39.1682 	 7.31069 	 3.45123 	 
H 	 -39.4909 	 8.14645 	 4.94218 	 
C 	 -38.5706 	 6.2662 	 5.27737 	 
H 	 -39.4537 	 5.65099 	 5.35528 	 
H 	 -38.4844 	 6.57979 	 6.30207 	 
C 	 -37.3393 	 5.35006 	 4.83232 	 
H 	 -36.43 	 5.80327 	 5.16777 	 
H 	 -37.1662 	 5.21116 	 3.7056 	 
H 	 -37.3414 	 4.43146 	 5.41017 	 
H 	 -37.9641 	 9.58356 	 -1.63703 	 
H 	 -35.5511 	 10.5511 	 6.03896 	 
