34

S 	 -53.3135 	 -54.1128 	 -81.4701 	 
C 	 -54.7823 	 -53.4969 	 -80.728 	 
C 	 -55.9274 	 -54.0017 	 -81.3803 	 
C 	 -55.6092 	 -54.9857 	 -82.3941 	 
C 	 -54.2302 	 -55.2496 	 -82.4711 	 
H 	 -56.3884 	 -55.5141 	 -82.9633 	 
C 	 -57.3968 	 -53.808 	 -80.9477 	 
H 	 -57.4106 	 -53.4881 	 -79.8771 	 
H 	 -57.9377 	 -54.7693 	 -81.0425 	 
C 	 -58.1936 	 -52.824 	 -81.839 	 
H 	 -57.6249 	 -51.8554 	 -81.7999 	 
H 	 -58.2068 	 -53.1449 	 -82.8801 	 
C 	 -59.5983 	 -52.5493 	 -81.3016 	 
H 	 -59.508 	 -52.2846 	 -80.2345 	 
H 	 -59.9477 	 -51.7232 	 -81.8978 	 
H 	 -60.3039 	 -53.3767 	 -81.5356 	 
S 	 -51.9392 	 -56.6985 	 -82.7839 	 
C 	 -51.7325 	 -57.7278 	 -84.2023 	 
C 	 -52.6917 	 -57.4133 	 -85.1006 	 
C 	 -53.7524 	 -56.5086 	 -84.7099 	 
C 	 -53.5174 	 -56.1396 	 -83.3582 	 
H 	 -52.6364 	 -57.8011 	 -86.1122 	 
C 	 -55.0009 	 -56.2495 	 -85.5617 	 
H 	 -55.6635 	 -55.5718 	 -85.0344 	 
H 	 -55.6133 	 -57.1951 	 -85.5621 	 
C 	 -54.8348 	 -55.6149 	 -86.8682 	 
H 	 -55.6883 	 -55.203 	 -87.294 	 
H 	 -54.5634 	 -56.4897 	 -87.5114 	 
C 	 -53.7764 	 -54.5171 	 -86.8611 	 
H 	 -52.7673 	 -55.0315 	 -86.7602 	 
H 	 -54.0237 	 -53.7414 	 -86.1131 	 
H 	 -53.7267 	 -54.0105 	 -87.8483 	 
H 	 -54.8617 	 -52.7216 	 -80.0015 	 
H 	 -50.8467 	 -58.1931 	 -84.4543 	 
