34

S 	 -124.484 	 65.0413 	 -37.1452 	 
C 	 -124.11 	 64.3597 	 -38.7362 	 
C 	 -123.843 	 65.3843 	 -39.604 	 
C 	 -124.061 	 66.6951 	 -39.0316 	 
C 	 -124.523 	 66.6764 	 -37.7006 	 
H 	 -123.779 	 67.7108 	 -39.5108 	 
C 	 -123.16 	 65.2062 	 -40.9173 	 
H 	 -122.268 	 64.6657 	 -40.5841 	 
H 	 -122.905 	 66.0647 	 -41.4902 	 
C 	 -123.85 	 64.244 	 -41.8212 	 
H 	 -123.268 	 64.1391 	 -42.7499 	 
H 	 -124.059 	 63.2636 	 -41.3906 	 
C 	 -125.128 	 64.8094 	 -42.4525 	 
H 	 -124.936 	 65.5336 	 -43.1851 	 
H 	 -125.735 	 63.9493 	 -42.7908 	 
H 	 -125.763 	 65.2408 	 -41.7415 	 
S 	 -124.368 	 67.5504 	 -35.0051 	 
C 	 -124.521 	 69.2258 	 -34.6506 	 
C 	 -124.931 	 69.9595 	 -35.7747 	 
C 	 -124.978 	 69.1291 	 -37.0077 	 
C 	 -124.685 	 67.8137 	 -36.7916 	 
H 	 -125.202 	 71.0221 	 -35.6606 	 
C 	 -125.463 	 69.6856 	 -38.3435 	 
H 	 -126.444 	 70.2637 	 -38.1868 	 
H 	 -125.808 	 68.8024 	 -38.9369 	 
C 	 -124.377 	 70.5745 	 -39.1378 	 
H 	 -123.36 	 70.0615 	 -39.3035 	 
H 	 -124.023 	 71.4216 	 -38.4836 	 
C 	 -124.968 	 71.0005 	 -40.4027 	 
H 	 -125.663 	 71.8531 	 -40.2075 	 
H 	 -125.572 	 70.2545 	 -40.975 	 
H 	 -124.195 	 71.4031 	 -41.0334 	 
H 	 -124.13 	 63.3541 	 -38.9692 	 
H 	 -124.535 	 69.621 	 -33.653 	 
