34

S 	 -131.154 	 58.4343 	 -64.5804 	 
C 	 -129.63 	 58.3414 	 -65.3631 	 
C 	 -128.619 	 58.063 	 -64.4597 	 
C 	 -129.059 	 57.7093 	 -63.1842 	 
C 	 -130.401 	 58.0492 	 -63.0804 	 
H 	 -128.419 	 57.3811 	 -62.3724 	 
C 	 -127.12 	 58.0243 	 -64.8103 	 
H 	 -126.406 	 58.2316 	 -64.0504 	 
H 	 -127.008 	 58.8711 	 -65.5353 	 
C 	 -126.658 	 56.6806 	 -65.5048 	 
H 	 -127.319 	 56.433 	 -66.2799 	 
H 	 -125.688 	 56.8433 	 -65.9724 	 
C 	 -126.586 	 55.4824 	 -64.5707 	 
H 	 -125.962 	 55.7615 	 -63.7159 	 
H 	 -127.512 	 55.2068 	 -64.1306 	 
H 	 -126.238 	 54.5846 	 -65.0433 	 
S 	 -131.647 	 59.746 	 -61.2545 	 
C 	 -132.091 	 59.1235 	 -59.7149 	 
C 	 -131.698 	 57.8387 	 -59.4945 	 
C 	 -131.137 	 57.2406 	 -60.7166 	 
C 	 -131.152 	 58.1218 	 -61.8112 	 
H 	 -131.851 	 57.2143 	 -58.642 	 
C 	 -130.621 	 55.8063 	 -60.6976 	 
H 	 -130.116 	 55.6794 	 -59.7595 	 
H 	 -129.896 	 55.7502 	 -61.4853 	 
C 	 -131.736 	 54.8213 	 -60.8989 	 
H 	 -131.225 	 53.9696 	 -61.3545 	 
H 	 -132.535 	 55.2081 	 -61.4641 	 
C 	 -132.294 	 54.1434 	 -59.5889 	 
H 	 -132.948 	 53.3108 	 -59.8553 	 
H 	 -132.901 	 54.9536 	 -59.1636 	 
H 	 -131.545 	 53.786 	 -58.8552 	 
H 	 -129.549 	 58.3183 	 -66.4319 	 
H 	 -132.308 	 59.6846 	 -58.8753 	 
