34

S 	 -57.5527 	 9.1535 	 -86.8775 	 
C 	 -57.5955 	 10.2438 	 -88.2777 	 
C 	 -58.1282 	 11.4508 	 -87.9103 	 
C 	 -58.7899 	 11.4697 	 -86.6186 	 
C 	 -58.5216 	 10.3011 	 -85.8979 	 
H 	 -59.4484 	 12.2957 	 -86.3027 	 
C 	 -58.0884 	 12.7268 	 -88.7799 	 
H 	 -58.8821 	 13.3156 	 -88.5327 	 
H 	 -58.1761 	 12.4668 	 -89.8179 	 
C 	 -56.9321 	 13.7686 	 -88.6253 	 
H 	 -56.2355 	 13.645 	 -89.3679 	 
H 	 -57.4502 	 14.7576 	 -88.8076 	 
C 	 -56.2832 	 13.801 	 -87.2385 	 
H 	 -55.6236 	 12.9734 	 -87.0591 	 
H 	 -55.6093 	 14.6443 	 -87.2456 	 
H 	 -57.0118 	 13.9894 	 -86.502 	 
S 	 -57.7387 	 10.5468 	 -83.2739 	 
C 	 -58.7809 	 9.86242 	 -81.9977 	 
C 	 -59.9623 	 9.36844 	 -82.5634 	 
C 	 -59.9209 	 9.28311 	 -84.0024 	 
C 	 -58.7964 	 9.93356 	 -84.5449 	 
H 	 -60.7269 	 8.96079 	 -81.8822 	 
C 	 -61.0917 	 8.58914 	 -84.8194 	 
H 	 -61.7422 	 8.46197 	 -84.0013 	 
H 	 -60.8032 	 7.61921 	 -85.1527 	 
C 	 -61.7852 	 9.38618 	 -85.9038 	 
H 	 -62.5365 	 8.7462 	 -86.4328 	 
H 	 -61.0973 	 9.56581 	 -86.7094 	 
C 	 -62.3576 	 10.7527 	 -85.4126 	 
H 	 -62.8052 	 11.3133 	 -86.2574 	 
H 	 -61.4711 	 11.2248 	 -85.0154 	 
H 	 -63.1008 	 10.6558 	 -84.6103 	 
H 	 -57.0126 	 10.0052 	 -89.2036 	 
H 	 -58.5509 	 9.9622 	 -80.9885 	 
