34

S 	 25.0009 	 -0.978867 	 -108.252 	 
C 	 23.9213 	 -2.30508 	 -107.969 	 
C 	 22.6493 	 -2.07091 	 -108.533 	 
C 	 22.6261 	 -0.855657 	 -109.322 	 
C 	 23.7571 	 -0.125162 	 -109.153 	 
H 	 21.8069 	 -0.514226 	 -109.861 	 
C 	 21.4511 	 -2.97722 	 -108.426 	 
H 	 20.9266 	 -2.70737 	 -107.505 	 
H 	 21.8285 	 -3.9971 	 -108.155 	 
C 	 20.3399 	 -3.08813 	 -109.584 	 
H 	 19.7799 	 -3.91197 	 -109.255 	 
H 	 19.7052 	 -2.20063 	 -109.659 	 
C 	 20.86 	 -3.33251 	 -111.016 	 
H 	 20.0283 	 -3.04055 	 -111.613 	 
H 	 21.6516 	 -2.65713 	 -111.371 	 
H 	 21.0918 	 -4.36975 	 -111.269 	 
S 	 24.1812 	 2.61899 	 -108.768 	 
C 	 24.7842 	 3.58875 	 -110.087 	 
C 	 25.0795 	 2.76623 	 -111.169 	 
C 	 24.7173 	 1.37753 	 -110.961 	 
C 	 24.0876 	 1.14278 	 -109.76 	 
H 	 25.4951 	 3.10069 	 -112.086 	 
C 	 24.8573 	 0.41883 	 -112.111 	 
H 	 24.0287 	 0.705801 	 -112.727 	 
H 	 24.5158 	 -0.525379 	 -111.766 	 
C 	 26.2977 	 0.333989 	 -112.717 	 
H 	 26.5318 	 1.26218 	 -113.307 	 
H 	 26.2757 	 -0.521767 	 -113.415 	 
C 	 27.4005 	 0.158826 	 -111.735 	 
H 	 27.4882 	 0.973156 	 -110.963 	 
H 	 28.3401 	 0.185454 	 -112.215 	 
H 	 27.3399 	 -0.860479 	 -111.192 	 
H 	 24.1204 	 -3.06916 	 -107.23 	 
H 	 24.9809 	 4.6814 	 -110.109 	 
