34

S 	 -89.8332 	 2.22227 	 -115.46 	 
C 	 -88.8675 	 0.809076 	 -115.415 	 
C 	 -88.089 	 0.775877 	 -116.583 	 
C 	 -88.2549 	 1.95195 	 -117.413 	 
C 	 -89.1492 	 2.84275 	 -116.937 	 
H 	 -87.8128 	 2.09103 	 -118.413 	 
C 	 -87.1987 	 -0.370969 	 -117.137 	 
H 	 -86.7206 	 -0.738174 	 -116.164 	 
H 	 -86.411 	 0.110455 	 -117.683 	 
C 	 -87.8906 	 -1.4956 	 -117.886 	 
H 	 -87.1882 	 -2.28218 	 -117.848 	 
H 	 -88.7359 	 -1.97715 	 -117.401 	 
C 	 -88.2328 	 -1.11404 	 -119.291 	 
H 	 -88.9408 	 -0.300495 	 -119.452 	 
H 	 -87.3411 	 -0.655464 	 -119.76 	 
H 	 -88.6054 	 -1.88681 	 -119.996 	 
S 	 -88.7254 	 4.70612 	 -118.919 	 
C 	 -89.8821 	 5.90438 	 -119.377 	 
C 	 -91.0162 	 5.5607 	 -118.775 	 
C 	 -90.9719 	 4.53593 	 -117.734 	 
C 	 -89.7145 	 3.96321 	 -117.688 	 
H 	 -91.8296 	 6.23747 	 -118.933 	 
C 	 -92.1534 	 4.35554 	 -116.842 	 
H 	 -92.4853 	 5.39371 	 -116.613 	 
H 	 -91.9093 	 4.06833 	 -115.839 	 
C 	 -93.3124 	 3.52486 	 -117.338 	 
H 	 -92.9896 	 2.54145 	 -117.564 	 
H 	 -93.6492 	 3.84443 	 -118.289 	 
C 	 -94.424 	 3.44551 	 -116.238 	 
H 	 -95.2738 	 2.79237 	 -116.556 	 
H 	 -94.7291 	 4.44453 	 -115.986 	 
H 	 -94.0235 	 3.00279 	 -115.303 	 
H 	 -88.8517 	 0.111717 	 -114.641 	 
H 	 -89.7045 	 6.77918 	 -119.964 	 
