34

S 	 -44.6791 	 26.5728 	 30.938 	 
C 	 -44.7955 	 24.8054 	 30.7387 	 
C 	 -44.167 	 24.1197 	 31.7294 	 
C 	 -43.4328 	 25.0164 	 32.5584 	 
C 	 -43.6155 	 26.3699 	 32.245 	 
H 	 -42.7746 	 24.8262 	 33.4448 	 
C 	 -44.1063 	 22.643 	 32.0919 	 
H 	 -43.3012 	 22.3552 	 32.8483 	 
H 	 -43.8185 	 22.0229 	 31.2098 	 
C 	 -45.4134 	 21.9731 	 32.4893 	 
H 	 -45.8201 	 22.5258 	 33.2619 	 
H 	 -46.1363 	 21.915 	 31.6289 	 
C 	 -45.2344 	 20.5238 	 32.8989 	 
H 	 -44.8296 	 19.7363 	 32.2242 	 
H 	 -44.7371 	 20.446 	 33.8753 	 
H 	 -46.2489 	 20.1181 	 33.2317 	 
S 	 -43.1313 	 27.6687 	 34.6081 	 
C 	 -41.9438 	 28.9644 	 34.5038 	 
C 	 -41.6269 	 29.36 	 33.191 	 
C 	 -42.1366 	 28.4707 	 32.2279 	 
C 	 -42.9973 	 27.5166 	 32.8508 	 
H 	 -40.8942 	 30.1312 	 33.0063 	 
C 	 -41.7588 	 28.4916 	 30.7698 	 
H 	 -41.5344 	 29.4467 	 30.4444 	 
H 	 -42.4635 	 28.0578 	 30.0553 	 
C 	 -40.4171 	 27.7001 	 30.6079 	 
H 	 -40.5976 	 26.738 	 31.1514 	 
H 	 -39.5932 	 28.1475 	 31.2205 	 
C 	 -39.8939 	 27.3831 	 29.1581 	 
H 	 -40.3333 	 28.1696 	 28.4666 	 
H 	 -40.218 	 26.3851 	 28.843 	 
H 	 -38.7907 	 27.5241 	 29.189 	 
H 	 -45.3291 	 24.3505 	 29.9525 	 
H 	 -41.6745 	 29.5715 	 35.3096 	 
