34

S 	 -67.5075 	 9.67924 	 -72.1228 	 
C 	 -66.3676 	 11.0148 	 -72.2936 	 
C 	 -66.6009 	 11.9848 	 -71.2933 	 
C 	 -67.7698 	 11.6456 	 -70.5536 	 
C 	 -68.4216 	 10.4706 	 -70.9308 	 
H 	 -68.0764 	 12.2848 	 -69.8067 	 
C 	 -65.6794 	 13.0969 	 -71.0226 	 
H 	 -66.2239 	 14.0164 	 -70.9906 	 
H 	 -65.249 	 13.3187 	 -71.991 	 
C 	 -64.5897 	 12.9429 	 -69.9729 	 
H 	 -63.9136 	 12.1214 	 -70.2209 	 
H 	 -63.8871 	 13.8274 	 -69.8963 	 
C 	 -65.1681 	 12.8691 	 -68.5854 	 
H 	 -65.8166 	 11.9611 	 -68.4691 	 
H 	 -64.3664 	 12.9827 	 -67.8181 	 
H 	 -65.7047 	 13.7756 	 -68.4888 	 
S 	 -69.3901 	 8.04995 	 -69.8602 	 
C 	 -70.8969 	 7.97962 	 -69.0162 	 
C 	 -71.5058 	 9.23064 	 -69.0727 	 
C 	 -70.6622 	 10.2827 	 -69.659 	 
C 	 -69.5353 	 9.77091 	 -70.2929 	 
H 	 -72.4675 	 9.23677 	 -68.6313 	 
C 	 -71.022 	 11.7107 	 -69.8361 	 
H 	 -72.0633 	 11.8097 	 -70.1975 	 
H 	 -70.4572 	 12.0996 	 -70.6843 	 
C 	 -70.757 	 12.602 	 -68.5991 	 
H 	 -71.0579 	 13.5902 	 -68.8001 	 
H 	 -69.7038 	 12.7091 	 -68.344 	 
C 	 -71.5253 	 12.1429 	 -67.4402 	 
H 	 -71.6282 	 12.9904 	 -66.719 	 
H 	 -71.1593 	 11.2686 	 -66.8458 	 
H 	 -72.5895 	 12.038 	 -67.7369 	 
H 	 -65.483 	 10.9599 	 -72.8212 	 
H 	 -71.3528 	 7.13049 	 -68.6316 	 
