34

S 	 -42.3013 	 -2.73963 	 -8.69552 	 
C 	 -43.0882 	 -2.67472 	 -7.15169 	 
C 	 -44.4249 	 -3.06678 	 -7.32967 	 
C 	 -44.7973 	 -3.23813 	 -8.70486 	 
C 	 -43.6893 	 -3.31646 	 -9.50575 	 
H 	 -45.7487 	 -3.49973 	 -9.15376 	 
C 	 -45.456 	 -3.13346 	 -6.20048 	 
H 	 -45.2679 	 -2.2975 	 -5.52277 	 
H 	 -45.2238 	 -4.0235 	 -5.57105 	 
C 	 -46.9943 	 -3.11754 	 -6.64782 	 
H 	 -47.0089 	 -2.17825 	 -7.24439 	 
H 	 -47.3671 	 -3.95267 	 -7.29931 	 
C 	 -47.9159 	 -3.12893 	 -5.45512 	 
H 	 -47.9163 	 -3.96431 	 -4.75119 	 
H 	 -47.6995 	 -2.15688 	 -4.94723 	 
H 	 -48.9945 	 -3.08705 	 -5.66314 	 
S 	 -42.6874 	 -2.62773 	 -12.0782 	 
C 	 -43.3695 	 -3.47352 	 -13.4713 	 
C 	 -44.0832 	 -4.63514 	 -13.0705 	 
C 	 -44.136 	 -4.73395 	 -11.6125 	 
C 	 -43.5027 	 -3.69413 	 -10.9197 	 
H 	 -44.6217 	 -5.25427 	 -13.7193 	 
C 	 -44.9367 	 -5.76852 	 -10.9128 	 
H 	 -44.6409 	 -5.72418 	 -9.85827 	 
H 	 -44.5899 	 -6.76738 	 -11.1942 	 
C 	 -46.4693 	 -5.63699 	 -11.0806 	 
H 	 -46.7528 	 -5.89072 	 -12.1661 	 
H 	 -46.7838 	 -4.68665 	 -10.8808 	 
C 	 -47.275 	 -6.71046 	 -10.2144 	 
H 	 -47.1065 	 -7.61372 	 -10.6651 	 
H 	 -48.3255 	 -6.62984 	 -10.1116 	 
H 	 -46.9924 	 -6.73977 	 -9.18216 	 
H 	 -42.6015 	 -2.49254 	 -6.16106 	 
H 	 -43.1549 	 -3.23381 	 -14.5042 	 
