34

S 	 -46.8662 	 -2.7436 	 19.574 	 
C 	 -47.8065 	 -1.7918 	 18.4541 	 
C 	 -48.8205 	 -2.51198 	 17.8645 	 
C 	 -49.0606 	 -3.77313 	 18.4007 	 
C 	 -48.0323 	 -4.17362 	 19.2365 	 
H 	 -49.851 	 -4.44427 	 18.0816 	 
C 	 -49.7742 	 -1.896 	 16.9234 	 
H 	 -50.581 	 -1.46747 	 17.5028 	 
H 	 -50.252 	 -2.78833 	 16.4247 	 
C 	 -49.1772 	 -0.769493 	 15.9598 	 
H 	 -48.6368 	 0.0989025 	 16.4345 	 
H 	 -48.3648 	 -1.19085 	 15.3244 	 
C 	 -50.3179 	 -0.271425 	 15.0491 	 
H 	 -50.6448 	 -0.87765 	 14.1585 	 
H 	 -51.1104 	 0.159082 	 15.6721 	 
H 	 -49.9608 	 0.648995 	 14.5772 	 
S 	 -47.8236 	 -6.81675 	 18.7556 	 
C 	 -47.3408 	 -7.94339 	 20.0676 	 
C 	 -47.2879 	 -7.28909 	 21.2582 	 
C 	 -47.4651 	 -5.86223 	 21.131 	 
C 	 -47.8069 	 -5.48863 	 19.8275 	 
H 	 -47.1045 	 -7.75668 	 22.2059 	 
C 	 -47.4252 	 -4.95612 	 22.3534 	 
H 	 -46.7795 	 -4.1545 	 21.9293 	 
H 	 -46.8583 	 -5.45503 	 23.1907 	 
C 	 -48.7246 	 -4.29082 	 22.8262 	 
H 	 -49.3993 	 -5.11786 	 23.0112 	 
H 	 -49.2588 	 -3.9485 	 22.0094 	 
C 	 -48.5405 	 -3.22197 	 23.9176 	 
H 	 -49.4516 	 -3.09868 	 24.4113 	 
H 	 -48.2109 	 -2.33863 	 23.536 	 
H 	 -47.8477 	 -3.59533 	 24.7078 	 
H 	 -47.5817 	 -0.712101 	 18.3483 	 
H 	 -47.4157 	 -8.99797 	 20.063 	 
