34

S 	 -125.228 	 67.656 	 -42.5312 	 
C 	 -126.542 	 68.5143 	 -41.8504 	 
C 	 -126.363 	 68.8496 	 -40.4569 	 
C 	 -125.135 	 68.2288 	 -39.979 	 
C 	 -124.374 	 67.7388 	 -41.031 	 
H 	 -124.807 	 68.1621 	 -38.895 	 
C 	 -127.473 	 69.4495 	 -39.5327 	 
H 	 -128.147 	 70.0141 	 -40.2071 	 
H 	 -127.086 	 70.0775 	 -38.7184 	 
C 	 -128.292 	 68.5167 	 -38.7659 	 
H 	 -128.365 	 67.6388 	 -39.3673 	 
H 	 -127.852 	 68.2623 	 -37.7899 	 
C 	 -129.738 	 68.9762 	 -38.6678 	 
H 	 -130.215 	 69.5333 	 -39.5087 	 
H 	 -130.398 	 68.1153 	 -38.5439 	 
H 	 -129.86 	 69.737 	 -37.8587 	 
S 	 -122.69 	 66.0028 	 -39.6304 	 
C 	 -120.946 	 65.8676 	 -40.0418 	 
C 	 -120.732 	 66.6893 	 -41.1399 	 
C 	 -121.933 	 67.3051 	 -41.6449 	 
C 	 -123.084 	 67.1141 	 -40.8723 	 
H 	 -119.744 	 66.8486 	 -41.5156 	 
C 	 -121.865 	 68.2522 	 -42.7956 	 
H 	 -122.634 	 69.0947 	 -42.731 	 
H 	 -121.952 	 67.6462 	 -43.6184 	 
C 	 -120.557 	 68.9544 	 -42.9362 	 
H 	 -119.851 	 68.3827 	 -43.4179 	 
H 	 -120.201 	 69.3044 	 -42.0034 	 
C 	 -120.76 	 70.0111 	 -43.9645 	 
H 	 -121.635 	 70.652 	 -43.8623 	 
H 	 -120.952 	 69.6289 	 -44.9614 	 
H 	 -119.834 	 70.4615 	 -44.1974 	 
H 	 -127.434 	 68.781 	 -42.3344 	 
H 	 -120.187 	 65.3007 	 -39.514 	 
