34

S 	 -43.5099 	 -6.16 	 22.7316 	 
C 	 -44.9299 	 -6.88285 	 21.9366 	 
C 	 -45.13 	 -6.15883 	 20.7505 	 
C 	 -44.2416 	 -5.0593 	 20.5066 	 
C 	 -43.2351 	 -4.99373 	 21.4617 	 
H 	 -44.2855 	 -4.44072 	 19.5784 	 
C 	 -46.0743 	 -6.64188 	 19.668 	 
H 	 -45.5465 	 -7.4519 	 19.2007 	 
H 	 -46.0649 	 -5.96025 	 18.8139 	 
C 	 -47.5054 	 -7.11805 	 20.0065 	 
H 	 -47.487 	 -7.94769 	 20.6916 	 
H 	 -48.084 	 -6.30409 	 20.3941 	 
C 	 -48.1911 	 -7.47137 	 18.6654 	 
H 	 -49.0618 	 -8.08934 	 18.8892 	 
H 	 -48.4448 	 -6.58281 	 18.095 	 
H 	 -47.5743 	 -8.08564 	 17.9677 	 
S 	 -40.6915 	 -5.1845 	 20.8143 	 
C 	 -39.7537 	 -3.80704 	 20.388 	 
C 	 -40.4965 	 -2.72609 	 20.6121 	 
C 	 -41.8451 	 -2.87798 	 21.0735 	 
C 	 -42.059 	 -4.26138 	 21.3119 	 
H 	 -40.1359 	 -1.71608 	 20.3108 	 
C 	 -42.8888 	 -1.78413 	 21.1289 	 
H 	 -42.5616 	 -0.929416 	 21.7552 	 
H 	 -43.8329 	 -2.17178 	 21.6476 	 
C 	 -43.3022 	 -1.06709 	 19.7676 	 
H 	 -43.6519 	 -1.89088 	 19.094 	 
H 	 -42.358 	 -0.527729 	 19.333 	 
C 	 -44.4819 	 -0.0606577 	 19.8348 	 
H 	 -44.1216 	 0.789375 	 20.3858 	 
H 	 -45.3113 	 -0.445797 	 20.4697 	 
H 	 -44.833 	 0.314115 	 18.8337 	 
H 	 -45.4476 	 -7.76108 	 22.2554 	 
H 	 -38.7241 	 -3.89598 	 19.9648 	 
