34

S 	 -107.057 	 60.6904 	 -96.6994 	 
C 	 -105.626 	 60.6212 	 -95.6571 	 
C 	 -105.248 	 59.3387 	 -95.3655 	 
C 	 -106.217 	 58.3954 	 -95.8182 	 
C 	 -107.18 	 58.9502 	 -96.678 	 
H 	 -106.124 	 57.2839 	 -95.6183 	 
C 	 -104.043 	 59.0144 	 -94.5692 	 
H 	 -104.355 	 58.2139 	 -93.89 	 
H 	 -103.749 	 59.8956 	 -94.005 	 
C 	 -102.842 	 58.38 	 -95.3235 	 
H 	 -102.052 	 58.1858 	 -94.6053 	 
H 	 -103.172 	 57.3741 	 -95.5865 	 
C 	 -102.221 	 59.3889 	 -96.331 	 
H 	 -101.256 	 58.9968 	 -96.7865 	 
H 	 -102.948 	 59.7667 	 -97.0461 	 
H 	 -101.839 	 60.1659 	 -95.6981 	 
S 	 -108.213 	 58.8704 	 -99.2319 	 
C 	 -109.329 	 57.5726 	 -99.6768 	 
C 	 -109.576 	 56.7143 	 -98.5814 	 
C 	 -108.87 	 57.1322 	 -97.3946 	 
C 	 -108.138 	 58.2956 	 -97.5413 	 
H 	 -110.301 	 55.971 	 -98.7102 	 
C 	 -108.982 	 56.2898 	 -96.1246 	 
H 	 -108.061 	 56.0084 	 -95.6217 	 
H 	 -109.464 	 55.3907 	 -96.4724 	 
C 	 -109.852 	 56.9013 	 -95.0522 	 
H 	 -110.835 	 57.1067 	 -95.4643 	 
H 	 -109.456 	 57.8982 	 -94.6969 	 
C 	 -110.105 	 55.9276 	 -93.8475 	 
H 	 -109.315 	 55.262 	 -93.5825 	 
H 	 -110.976 	 55.3815 	 -93.9912 	 
H 	 -110.259 	 56.587 	 -93.0076 	 
H 	 -104.927 	 61.4254 	 -95.4078 	 
H 	 -109.819 	 57.4669 	 -100.61 	 
