34

S 	 -114.431 	 57.9897 	 -27.5639 	 
C 	 -113.756 	 58.7052 	 -26.1605 	 
C 	 -113.142 	 59.9842 	 -26.4598 	 
C 	 -113.315 	 60.349 	 -27.7983 	 
C 	 -113.997 	 59.3709 	 -28.5492 	 
H 	 -113.026 	 61.2483 	 -28.3108 	 
C 	 -112.561 	 60.9398 	 -25.3587 	 
H 	 -112.111 	 61.8028 	 -25.8874 	 
H 	 -111.565 	 60.6704 	 -24.8211 	 
C 	 -113.564 	 61.3951 	 -24.2323 	 
H 	 -114.455 	 61.688 	 -24.8514 	 
H 	 -113.862 	 60.525 	 -23.5922 	 
C 	 -113.031 	 62.4051 	 -23.2959 	 
H 	 -112.601 	 63.2287 	 -23.8522 	 
H 	 -113.732 	 62.8069 	 -22.5378 	 
H 	 -112.216 	 61.9761 	 -22.7844 	 
S 	 -113.417 	 58.4534 	 -31.0081 	 
C 	 -114.536 	 58.633 	 -32.3279 	 
C 	 -115.461 	 59.5696 	 -31.9861 	 
C 	 -115.288 	 60.1274 	 -30.6578 	 
C 	 -114.371 	 59.3994 	 -29.975 	 
H 	 -116.229 	 59.9125 	 -32.7073 	 
C 	 -116.121 	 61.2808 	 -30.1936 	 
H 	 -116.783 	 61.5843 	 -30.9703 	 
H 	 -115.285 	 61.9944 	 -30.0655 	 
C 	 -116.931 	 61.0575 	 -28.8888 	 
H 	 -117.363 	 62.0636 	 -28.7035 	 
H 	 -116.263 	 60.7274 	 -28.0931 	 
C 	 -118.03 	 60.0448 	 -28.9471 	 
H 	 -118.558 	 60.1324 	 -29.8896 	 
H 	 -118.678 	 60.1844 	 -28.0216 	 
H 	 -117.698 	 59.0202 	 -28.9923 	 
H 	 -113.817 	 58.3508 	 -25.1408 	 
H 	 -114.507 	 58.134 	 -33.2982 	 
