34

S 	 -70.2977 	 6.6741 	 -113.264 	 
C 	 -71.3091 	 6.64046 	 -111.865 	 
C 	 -70.8665 	 7.62799 	 -110.957 	 
C 	 -69.7474 	 8.34294 	 -111.421 	 
C 	 -69.2379 	 7.92262 	 -112.625 	 
H 	 -69.2103 	 9.17862 	 -110.916 	 
C 	 -71.4577 	 7.89976 	 -109.58 	 
H 	 -71.4605 	 6.93652 	 -109.09 	 
H 	 -72.498 	 8.10897 	 -109.745 	 
C 	 -70.8771 	 8.99019 	 -108.575 	 
H 	 -69.9216 	 8.73416 	 -108.202 	 
H 	 -70.8405 	 9.97059 	 -109.058 	 
C 	 -71.8223 	 9.29959 	 -107.386 	 
H 	 -71.2332 	 9.61005 	 -106.527 	 
H 	 -72.6824 	 9.91392 	 -107.56 	 
H 	 -72.3508 	 8.39644 	 -107.103 	 
S 	 -68.5818 	 8.98299 	 -115.144 	 
C 	 -67.007 	 9.70785 	 -115.39 	 
C 	 -66.2315 	 9.51751 	 -114.251 	 
C 	 -66.8754 	 8.88913 	 -113.109 	 
C 	 -68.1832 	 8.55291 	 -113.443 	 
H 	 -65.1877 	 9.8577 	 -114.209 	 
C 	 -66.2269 	 8.68161 	 -111.758 	 
H 	 -66.3031 	 7.55357 	 -111.738 	 
H 	 -66.8661 	 8.94575 	 -110.941 	 
C 	 -64.8471 	 9.26933 	 -111.45 	 
H 	 -64.1892 	 9.09235 	 -112.361 	 
H 	 -64.3275 	 8.72488 	 -110.611 	 
C 	 -64.6914 	 10.7275 	 -111.383 	 
H 	 -64.7484 	 11.2513 	 -112.337 	 
H 	 -63.7104 	 10.95 	 -110.984 	 
H 	 -65.2991 	 11.3123 	 -110.702 	 
H 	 -72.2566 	 6.10222 	 -111.708 	 
H 	 -66.749 	 10.4407 	 -116.099 	 
