34

S 	 -47.3828 	 -50.3076 	 -74.7827 	 
C 	 -46.7485 	 -48.7178 	 -74.5845 	 
C 	 -46.0678 	 -48.6025 	 -73.3999 	 
C 	 -46.2097 	 -49.7174 	 -72.533 	 
C 	 -46.9549 	 -50.7768 	 -73.1409 	 
H 	 -45.8423 	 -49.7076 	 -71.5447 	 
C 	 -45.5585 	 -47.2351 	 -72.9928 	 
H 	 -45.2843 	 -47.314 	 -71.9586 	 
H 	 -46.3373 	 -46.5513 	 -73.1197 	 
C 	 -44.352 	 -46.7744 	 -73.8489 	 
H 	 -43.4456 	 -47.3351 	 -73.5922 	 
H 	 -44.5575 	 -46.9841 	 -74.8559 	 
C 	 -43.9632 	 -45.3236 	 -73.7071 	 
H 	 -43.1988 	 -44.9826 	 -74.3585 	 
H 	 -44.8278 	 -44.6684 	 -73.8738 	 
H 	 -43.6739 	 -45.1992 	 -72.7025 	 
S 	 -47.4819 	 -53.4032 	 -73.8091 	 
C 	 -47.7448 	 -54.6032 	 -72.5337 	 
C 	 -47.4983 	 -54.0264 	 -71.3102 	 
C 	 -46.9786 	 -52.7035 	 -71.3732 	 
C 	 -47.1336 	 -52.1461 	 -72.6275 	 
H 	 -47.5582 	 -54.7186 	 -70.4598 	 
C 	 -46.5897 	 -51.9113 	 -70.0946 	 
H 	 -47.2386 	 -51.1075 	 -69.8962 	 
H 	 -45.5918 	 -51.5575 	 -70.1202 	 
C 	 -46.6543 	 -52.7339 	 -68.7635 	 
H 	 -46.0148 	 -53.6056 	 -68.8081 	 
H 	 -47.6015 	 -53.1939 	 -68.5075 	 
C 	 -46.4036 	 -51.9074 	 -67.4579 	 
H 	 -45.5704 	 -51.1637 	 -67.5748 	 
H 	 -46.1208 	 -52.5064 	 -66.6002 	 
H 	 -47.241 	 -51.3556 	 -67.1565 	 
H 	 -46.8643 	 -47.8248 	 -75.2155 	 
H 	 -48.0513 	 -55.5702 	 -72.7425 	 
