34

S 	 -124.819 	 62.3243 	 -54.0891 	 
C 	 -123.701 	 63.4159 	 -54.9641 	 
C 	 -122.82 	 64.1704 	 -54.2038 	 
C 	 -123.089 	 63.7988 	 -52.8314 	 
C 	 -124.166 	 62.9203 	 -52.5963 	 
H 	 -122.651 	 64.2083 	 -51.8778 	 
C 	 -121.847 	 65.197 	 -54.8161 	 
H 	 -120.901 	 64.6614 	 -55.18 	 
H 	 -121.533 	 65.9334 	 -54.0413 	 
C 	 -122.227 	 65.9374 	 -56.0676 	 
H 	 -121.39 	 66.5587 	 -56.3972 	 
H 	 -122.534 	 65.3061 	 -56.9093 	 
C 	 -123.442 	 66.8582 	 -55.893 	 
H 	 -123.68 	 67.38 	 -56.8113 	 
H 	 -124.266 	 66.1243 	 -55.7681 	 
H 	 -123.352 	 67.5281 	 -55.0629 	 
S 	 -126.544 	 62.4451 	 -51.3698 	 
C 	 -126.558 	 61.9182 	 -49.7435 	 
C 	 -125.338 	 61.9804 	 -49.1227 	 
C 	 -124.305 	 62.3316 	 -50.0507 	 
C 	 -124.775 	 62.5328 	 -51.3586 	 
H 	 -125.209 	 61.7466 	 -48.0966 	 
C 	 -122.773 	 62.1943 	 -49.7085 	 
H 	 -122.169 	 62.0174 	 -50.592 	 
H 	 -122.779 	 61.2614 	 -49.1722 	 
C 	 -122.121 	 63.3327 	 -48.8672 	 
H 	 -122.695 	 63.4863 	 -48.022 	 
H 	 -122.153 	 64.2211 	 -49.5275 	 
C 	 -120.727 	 63.1076 	 -48.3217 	 
H 	 -120.185 	 64.0237 	 -48.3912 	 
H 	 -120.195 	 62.3797 	 -48.9288 	 
H 	 -120.708 	 62.7889 	 -47.2556 	 
H 	 -123.843 	 63.6389 	 -56.0198 	 
H 	 -127.396 	 61.8552 	 -49.051 	 
