34

S 	 -55.2502 	 14.2152 	 -91.3396 	 
C 	 -53.5946 	 14.4921 	 -90.923 	 
C 	 -52.7287 	 13.9698 	 -91.9728 	 
C 	 -53.41 	 13.1991 	 -92.9303 	 
C 	 -54.8219 	 13.175 	 -92.6725 	 
H 	 -52.9702 	 12.7268 	 -93.8244 	 
C 	 -51.2311 	 14.2537 	 -92.0653 	 
H 	 -50.8637 	 13.518 	 -92.7017 	 
H 	 -50.7984 	 14.1634 	 -91.1101 	 
C 	 -50.7802 	 15.5741 	 -92.7096 	 
H 	 -51.4652 	 16.2783 	 -92.2867 	 
H 	 -49.7342 	 15.8091 	 -92.5618 	 
C 	 -51.0336 	 15.5355 	 -94.2163 	 
H 	 -52.0325 	 15.0336 	 -94.3177 	 
H 	 -51.0504 	 16.4932 	 -94.645 	 
H 	 -50.2448 	 15.0267 	 -94.7958 	 
S 	 -56.4623 	 13.6928 	 -94.7692 	 
C 	 -57.4098 	 12.4563 	 -95.4517 	 
C 	 -57.2438 	 11.2269 	 -94.8807 	 
C 	 -56.2698 	 11.3061 	 -93.8021 	 
C 	 -55.7893 	 12.5784 	 -93.6143 	 
H 	 -57.7562 	 10.3404 	 -95.1311 	 
C 	 -55.8663 	 10.0795 	 -93.0321 	 
H 	 -55.0878 	 10.3186 	 -92.3425 	 
H 	 -55.5093 	 9.18822 	 -93.6411 	 
C 	 -57.0686 	 9.36746 	 -92.303 	 
H 	 -57.5998 	 8.9206 	 -93.0579 	 
H 	 -57.6493 	 10.2096 	 -92.0387 	 
C 	 -56.8398 	 8.49718 	 -91.089 	 
H 	 -56.3732 	 7.54642 	 -91.2613 	 
H 	 -57.7693 	 8.25933 	 -90.7075 	 
H 	 -56.3147 	 9.12747 	 -90.3933 	 
H 	 -53.2652 	 15.0367 	 -90.0284 	 
H 	 -58.2135 	 12.655 	 -96.1424 	 
