34

S 	 -45.3592 	 29.8507 	 31.1245 	 
C 	 -46.7796 	 28.9569 	 31.0415 	 
C 	 -46.4446 	 27.6028 	 30.7923 	 
C 	 -45.0284 	 27.3405 	 30.4848 	 
C 	 -44.3188 	 28.519 	 30.6551 	 
H 	 -44.4757 	 26.5128 	 30.162 	 
C 	 -47.2996 	 26.4037 	 30.9647 	 
H 	 -48.3254 	 26.6903 	 31.3205 	 
H 	 -46.8784 	 25.7933 	 31.7982 	 
C 	 -47.4588 	 25.4633 	 29.7427 	 
H 	 -47.9294 	 26.0014 	 28.8973 	 
H 	 -46.5096 	 25.092 	 29.4156 	 
C 	 -48.3987 	 24.2306 	 30.0664 	 
H 	 -48.2155 	 23.6568 	 30.9274 	 
H 	 -49.4344 	 24.6499 	 30.1729 	 
H 	 -48.4512 	 23.5301 	 29.218 	 
S 	 -42.0913 	 29.5101 	 31.8832 	 
C 	 -40.5836 	 29.4303 	 31.0928 	 
C 	 -40.6502 	 28.6146 	 29.9568 	 
C 	 -41.9528 	 28.2029 	 29.6741 	 
C 	 -42.8549 	 28.6622 	 30.596 	 
H 	 -39.7958 	 28.3526 	 29.3759 	 
C 	 -42.2919 	 27.3023 	 28.482 	 
H 	 -41.9985 	 27.7168 	 27.5517 	 
H 	 -43.3674 	 27.2952 	 28.3433 	 
C 	 -41.7162 	 25.8504 	 28.5709 	 
H 	 -42.1759 	 25.3786 	 29.3837 	 
H 	 -40.6424 	 25.9555 	 28.8076 	 
C 	 -42.0034 	 24.9295 	 27.3998 	 
H 	 -41.4791 	 24.0215 	 27.5338 	 
H 	 -41.7501 	 25.2877 	 26.4347 	 
H 	 -43.1013 	 24.686 	 27.3174 	 
H 	 -47.7266 	 29.2584 	 31.3057 	 
H 	 -39.6038 	 29.8853 	 31.4026 	 
