34

S 	 -33.0463 	 -27.1522 	 -97.223 	 
C 	 -34.2577 	 -25.8446 	 -97.1064 	 
C 	 -34.9678 	 -25.872 	 -95.9129 	 
C 	 -34.4372 	 -26.8156 	 -95.0508 	 
C 	 -33.4499 	 -27.6645 	 -95.5294 	 
H 	 -34.7177 	 -27.0149 	 -94.0716 	 
C 	 -36.0788 	 -24.9334 	 -95.3636 	 
H 	 -36.2827 	 -24.1406 	 -96.0652 	 
H 	 -35.698 	 -24.4366 	 -94.4848 	 
C 	 -37.3964 	 -25.6037 	 -94.9479 	 
H 	 -37.0793 	 -26.2391 	 -94.0891 	 
H 	 -38.2358 	 -24.9891 	 -94.6248 	 
C 	 -38.0516 	 -26.545 	 -96.0454 	 
H 	 -39.0908 	 -26.8318 	 -95.7358 	 
H 	 -38.1988 	 -25.9714 	 -96.9792 	 
H 	 -37.3633 	 -27.3654 	 -96.2465 	 
S 	 -32.4627 	 -30.1866 	 -96.1457 	 
C 	 -31.9484 	 -31.1255 	 -94.797 	 
C 	 -32.4306 	 -30.6687 	 -93.5978 	 
C 	 -32.892 	 -29.3025 	 -93.6647 	 
C 	 -32.9781 	 -28.9406 	 -94.9606 	 
H 	 -32.2891 	 -31.3164 	 -92.7266 	 
C 	 -33.068 	 -28.443 	 -92.4008 	 
H 	 -32.8671 	 -27.424 	 -92.6877 	 
H 	 -32.3494 	 -28.7579 	 -91.6614 	 
C 	 -34.427 	 -28.6026 	 -91.7856 	 
H 	 -34.5642 	 -29.4881 	 -91.1844 	 
H 	 -35.1729 	 -28.6521 	 -92.6337 	 
C 	 -34.6942 	 -27.5094 	 -90.7326 	 
H 	 -35.7333 	 -27.4067 	 -90.4154 	 
H 	 -34.3474 	 -26.4566 	 -90.9479 	 
H 	 -34.0139 	 -27.7672 	 -89.8682 	 
H 	 -34.5275 	 -25.2073 	 -97.912 	 
H 	 -31.5043 	 -32.0615 	 -94.8387 	 
