34

S 	 -46.7803 	 3.14474 	 -17.0755 	 
C 	 -47.3029 	 1.9429 	 -18.2349 	 
C 	 -48.6372 	 2.02467 	 -18.4911 	 
C 	 -49.3262 	 2.8802 	 -17.575 	 
C 	 -48.4537 	 3.66844 	 -16.8166 	 
H 	 -50.3842 	 3.00412 	 -17.5371 	 
C 	 -49.276 	 1.20569 	 -19.5957 	 
H 	 -48.6292 	 1.25797 	 -20.4983 	 
H 	 -50.2866 	 1.50594 	 -19.8752 	 
C 	 -49.3528 	 -0.259493 	 -19.3142 	 
H 	 -48.2768 	 -0.581387 	 -19.0805 	 
H 	 -50.0252 	 -0.543567 	 -18.5077 	 
C 	 -49.7297 	 -1.14671 	 -20.548 	 
H 	 -50.2635 	 -0.725403 	 -21.3845 	 
H 	 -48.8083 	 -1.5432 	 -20.9874 	 
H 	 -50.2688 	 -2.06246 	 -20.2546 	 
S 	 -47.7311 	 6.24465 	 -16.3972 	 
C 	 -48.7619 	 7.31521 	 -15.5094 	 
C 	 -49.8759 	 6.67214 	 -14.994 	 
C 	 -49.9454 	 5.29015 	 -15.3846 	 
C 	 -48.8513 	 4.88651 	 -16.1077 	 
H 	 -50.5669 	 7.25288 	 -14.4276 	 
C 	 -51.1187 	 4.47772 	 -14.9423 	 
H 	 -51.884 	 4.36586 	 -15.697 	 
H 	 -51.7215 	 5.21848 	 -14.348 	 
C 	 -50.8331 	 3.10211 	 -14.2168 	 
H 	 -50.3178 	 2.40314 	 -14.9004 	 
H 	 -51.8467 	 2.61319 	 -14.0825 	 
C 	 -50.1909 	 3.17969 	 -12.8236 	 
H 	 -49.2437 	 3.71646 	 -12.9683 	 
H 	 -50.1707 	 2.22567 	 -12.2844 	 
H 	 -50.8708 	 3.83989 	 -12.2513 	 
H 	 -46.6212 	 1.35258 	 -18.7847 	 
H 	 -48.613 	 8.37032 	 -15.2939 	 
