34

S 	 -134.439 	 10.426 	 -2.12657 	 
C 	 -134.726 	 10.1792 	 -0.379082 	 
C 	 -135.967 	 10.6568 	 -0.0194262 	 
C 	 -136.548 	 11.4628 	 -1.08074 	 
C 	 -135.831 	 11.4781 	 -2.27168 	 
H 	 -137.471 	 12.0194 	 -0.916151 	 
C 	 -136.573 	 10.5371 	 1.31483 	 
H 	 -136.253 	 11.4901 	 1.82339 	 
H 	 -135.968 	 9.87362 	 1.89559 	 
C 	 -137.979 	 10.0808 	 1.37002 	 
H 	 -138.389 	 9.85521 	 2.33825 	 
H 	 -138.662 	 10.7212 	 0.82076 	 
C 	 -138.016 	 8.7044 	 0.716525 	 
H 	 -139.025 	 8.24019 	 0.767779 	 
H 	 -137.632 	 8.77172 	 -0.286589 	 
H 	 -137.446 	 7.96267 	 1.2518 	 
S 	 -136.701 	 11.1385 	 -4.92317 	 
C 	 -136.928 	 12.59 	 -5.86181 	 
C 	 -136.784 	 13.7684 	 -5.07824 	 
C 	 -136.548 	 13.5333 	 -3.68597 	 
C 	 -136.262 	 12.1581 	 -3.48537 	 
H 	 -136.93 	 14.7405 	 -5.62871 	 
C 	 -136.42 	 14.6636 	 -2.6977 	 
H 	 -135.906 	 15.4155 	 -3.1968 	 
H 	 -135.673 	 14.4274 	 -1.97196 	 
C 	 -137.735 	 15.0297 	 -1.97469 	 
H 	 -137.926 	 14.1072 	 -1.45152 	 
H 	 -138.565 	 15.2081 	 -2.63118 	 
C 	 -137.662 	 16.2569 	 -0.981042 	 
H 	 -138.567 	 16.412 	 -0.419822 	 
H 	 -137.47 	 17.178 	 -1.57726 	 
H 	 -136.906 	 16.034 	 -0.262569 	 
H 	 -134.046 	 9.59917 	 0.184972 	 
H 	 -137.267 	 12.6287 	 -6.89459 	 
