34

S 	 -126.502 	 27.2145 	 -111.187 	 
C 	 -125.395 	 25.9459 	 -111.771 	 
C 	 -125.004 	 26.2395 	 -113.067 	 
C 	 -125.822 	 27.2796 	 -113.673 	 
C 	 -126.694 	 27.8474 	 -112.768 	 
H 	 -125.69 	 27.7199 	 -114.636 	 
C 	 -123.841 	 25.5146 	 -113.825 	 
H 	 -123.868 	 25.7796 	 -114.878 	 
H 	 -123.852 	 24.4781 	 -113.721 	 
C 	 -122.458 	 25.9678 	 -113.372 	 
H 	 -122.423 	 25.7209 	 -112.277 	 
H 	 -121.698 	 25.3307 	 -113.91 	 
C 	 -122.024 	 27.4497 	 -113.512 	 
H 	 -122.097 	 27.7969 	 -114.522 	 
H 	 -122.712 	 28.0636 	 -112.989 	 
H 	 -121.024 	 27.7727 	 -113.218 	 
S 	 -128.198 	 29.0316 	 -114.733 	 
C 	 -129.299 	 30.372 	 -114.282 	 
C 	 -129.326 	 30.5375 	 -112.92 	 
C 	 -128.332 	 29.7933 	 -112.196 	 
C 	 -127.714 	 28.8696 	 -113.053 	 
H 	 -130.019 	 31.2595 	 -112.443 	 
C 	 -128.229 	 29.9997 	 -110.694 	 
H 	 -128.297 	 31.075 	 -110.48 	 
H 	 -127.244 	 29.6921 	 -110.328 	 
C 	 -129.247 	 29.2051 	 -109.869 	 
H 	 -129.439 	 28.1533 	 -110.221 	 
H 	 -130.116 	 29.7991 	 -110.129 	 
C 	 -129.147 	 29.2761 	 -108.382 	 
H 	 -128.339 	 28.6113 	 -108.026 	 
H 	 -130.106 	 28.9615 	 -107.956 	 
H 	 -129.007 	 30.3105 	 -108.047 	 
H 	 -124.795 	 25.2899 	 -111.126 	 
H 	 -129.82 	 30.9894 	 -114.926 	 
