34

S 	 -110.85 	 61.3592 	 -70.71 	 
C 	 -109.589 	 62.4466 	 -70.9375 	 
C 	 -110.059 	 63.7745 	 -71.0767 	 
C 	 -111.489 	 63.8239 	 -71.1017 	 
C 	 -112.039 	 62.5782 	 -71.1161 	 
H 	 -112.133 	 64.7102 	 -71.1371 	 
C 	 -109.112 	 65.0171 	 -71.1465 	 
H 	 -108.389 	 64.9521 	 -70.4049 	 
H 	 -109.702 	 65.8708 	 -70.7679 	 
C 	 -108.382 	 65.2569 	 -72.5321 	 
H 	 -107.678 	 66.1018 	 -72.4687 	 
H 	 -107.78 	 64.372 	 -72.6686 	 
C 	 -109.287 	 65.3026 	 -73.7399 	 
H 	 -109.855 	 64.3526 	 -73.7654 	 
H 	 -109.988 	 66.0938 	 -73.449 	 
H 	 -108.868 	 65.4106 	 -74.7323 	 
S 	 -113.844 	 60.552 	 -70.6755 	 
C 	 -115.549 	 60.8255 	 -71.0768 	 
C 	 -115.727 	 62.0219 	 -71.731 	 
C 	 -114.501 	 62.7622 	 -71.8285 	 
C 	 -113.411 	 62.1656 	 -71.2582 	 
H 	 -116.679 	 62.2001 	 -72.1656 	 
C 	 -114.448 	 64.1748 	 -72.5149 	 
H 	 -114.132 	 64.8439 	 -71.693 	 
H 	 -115.43 	 64.6148 	 -72.6985 	 
C 	 -113.628 	 64.387 	 -73.8737 	 
H 	 -112.589 	 64.0549 	 -73.7501 	 
H 	 -113.54 	 65.4678 	 -74.0616 	 
C 	 -114.247 	 63.6436 	 -75.0894 	 
H 	 -113.651 	 63.6565 	 -75.9684 	 
H 	 -115.094 	 64.223 	 -75.2893 	 
H 	 -114.474 	 62.6271 	 -75.0217 	 
H 	 -108.507 	 62.1742 	 -70.7331 	 
H 	 -116.421 	 60.2295 	 -70.7503 	 
