34

S 	 -81.8905 	 -39.9402 	 -75.5081 	 
C 	 -82.3009 	 -40.3344 	 -77.1857 	 
C 	 -82.4979 	 -41.7083 	 -77.3646 	 
C 	 -82.1503 	 -42.4544 	 -76.2351 	 
C 	 -81.936 	 -41.6199 	 -75.1449 	 
H 	 -82.1555 	 -43.5343 	 -76.1119 	 
C 	 -82.9414 	 -42.3631 	 -78.6716 	 
H 	 -82.3705 	 -43.283 	 -78.7223 	 
H 	 -82.6038 	 -41.7054 	 -79.5072 	 
C 	 -84.4449 	 -42.6885 	 -78.7794 	 
H 	 -84.5592 	 -43.5796 	 -79.4419 	 
H 	 -84.6334 	 -42.9452 	 -77.7558 	 
C 	 -85.3677 	 -41.5537 	 -79.1482 	 
H 	 -85.3401 	 -40.7866 	 -78.3406 	 
H 	 -85.0761 	 -41.1602 	 -80.0774 	 
H 	 -86.329 	 -42.0325 	 -79.2687 	 
S 	 -80.2261 	 -41.4067 	 -73.0338 	 
C 	 -80.3901 	 -42.3934 	 -71.6403 	 
C 	 -81.4121 	 -43.2917 	 -71.776 	 
C 	 -82.0868 	 -43.1689 	 -73.0023 	 
C 	 -81.6186 	 -42.1719 	 -73.849 	 
H 	 -81.6676 	 -43.9233 	 -70.9702 	 
C 	 -83.1673 	 -44.0984 	 -73.2196 	 
H 	 -83.7443 	 -43.7954 	 -74.0582 	 
H 	 -83.8737 	 -43.8769 	 -72.3743 	 
C 	 -82.7732 	 -45.5685 	 -73.2093 	 
H 	 -83.6515 	 -46.2065 	 -73.1719 	 
H 	 -82.2703 	 -45.9468 	 -72.3109 	 
C 	 -81.767 	 -45.9793 	 -74.2633 	 
H 	 -80.8879 	 -45.4593 	 -74.0182 	 
H 	 -82.07 	 -45.8156 	 -75.2604 	 
H 	 -81.4591 	 -47.0398 	 -74.2392 	 
H 	 -82.516 	 -39.6741 	 -77.9957 	 
H 	 -79.7472 	 -42.4467 	 -70.8146 	 
