34

S 	 -70.6741 	 3.65084 	 -110.549 	 
C 	 -71.2026 	 3.83333 	 -108.927 	 
C 	 -70.0762 	 4.11429 	 -108.168 	 
C 	 -68.8557 	 4.16066 	 -108.931 	 
C 	 -68.9832 	 3.87934 	 -110.286 	 
H 	 -67.9021 	 4.43547 	 -108.526 	 
C 	 -70.1436 	 4.45025 	 -106.653 	 
H 	 -70.1776 	 5.49841 	 -106.529 	 
H 	 -69.1669 	 4.13791 	 -106.235 	 
C 	 -71.4079 	 3.78553 	 -105.894 	 
H 	 -72.3425 	 3.92673 	 -106.539 	 
H 	 -71.3172 	 2.68178 	 -105.785 	 
C 	 -71.532 	 4.37697 	 -104.59 	 
H 	 -72.2038 	 3.88199 	 -103.907 	 
H 	 -70.589 	 4.33335 	 -104.115 	 
H 	 -71.8812 	 5.41258 	 -104.728 	 
S 	 -68.5554 	 4.99548 	 -112.649 	 
C 	 -67.0806 	 4.73114 	 -113.572 	 
C 	 -66.2123 	 3.95627 	 -112.855 	 
C 	 -66.6677 	 3.64708 	 -111.537 	 
C 	 -68.0248 	 4.03685 	 -111.343 	 
H 	 -65.2993 	 3.63515 	 -113.329 	 
C 	 -65.8118 	 2.80203 	 -110.634 	 
H 	 -66.4767 	 2.70508 	 -109.777 	 
H 	 -64.9603 	 3.42555 	 -110.373 	 
C 	 -65.2444 	 1.47854 	 -111.187 	 
H 	 -64.6987 	 1.56092 	 -112.143 	 
H 	 -66.1342 	 0.965951 	 -111.523 	 
C 	 -64.4059 	 0.852384 	 -110.074 	 
H 	 -63.97 	 -0.115698 	 -110.139 	 
H 	 -64.945 	 0.81396 	 -109.07 	 
H 	 -63.4989 	 1.37116 	 -109.922 	 
H 	 -72.1851 	 3.89526 	 -108.655 	 
H 	 -66.8635 	 4.94644 	 -114.612 	 
