34

S 	 -64.1047 	 1.46015 	 -19.9881 	 
C 	 -65.5605 	 2.00017 	 -20.8128 	 
C 	 -65.2637 	 2.91438 	 -21.7921 	 
C 	 -63.866 	 2.80497 	 -22.1954 	 
C 	 -63.1353 	 1.97154 	 -21.3713 	 
H 	 -63.4129 	 3.26357 	 -23.0346 	 
C 	 -66.3345 	 3.76479 	 -22.5712 	 
H 	 -67.2322 	 3.08795 	 -22.7503 	 
H 	 -65.9846 	 4.13389 	 -23.5252 	 
C 	 -66.901 	 4.921 	 -21.8422 	 
H 	 -67.171 	 4.62778 	 -20.7974 	 
H 	 -66.2212 	 5.68677 	 -21.8345 	 
C 	 -68.1308 	 5.49411 	 -22.4412 	 
H 	 -67.7284 	 6.14066 	 -23.2533 	 
H 	 -68.8336 	 4.78302 	 -22.8695 	 
H 	 -68.6207 	 6.14874 	 -21.7118 	 
S 	 -60.4622 	 1.97967 	 -20.3118 	 
C 	 -59.2845 	 1.66808 	 -21.4656 	 
C 	 -59.6709 	 1.14588 	 -22.6558 	 
C 	 -61.1362 	 1.05606 	 -22.6665 	 
C 	 -61.7476 	 1.62461 	 -21.5198 	 
H 	 -58.9988 	 0.827601 	 -23.4235 	 
C 	 -61.7781 	 0.40088 	 -23.8883 	 
H 	 -61.5741 	 1.00053 	 -24.8849 	 
H 	 -62.8604 	 0.384557 	 -23.7132 	 
C 	 -61.3358 	 -1.06802 	 -24.2204 	 
H 	 -61.2347 	 -1.52643 	 -23.2335 	 
H 	 -60.3365 	 -1.20022 	 -24.6675 	 
C 	 -62.356 	 -1.7928 	 -25.0879 	 
H 	 -63.3896 	 -1.59584 	 -24.9162 	 
H 	 -62.2416 	 -2.87169 	 -25.2214 	 
H 	 -62.1809 	 -1.35165 	 -26.086 	 
H 	 -66.5765 	 1.75249 	 -20.4603 	 
H 	 -58.2072 	 1.90524 	 -21.3708 	 
