34

S 	 46.0106 	 -18.1211 	 -111.938 	 
C 	 47.2887 	 -18.6131 	 -110.856 	 
C 	 46.7206 	 -19.4048 	 -109.82 	 
C 	 45.3339 	 -19.5988 	 -110.011 	 
C 	 44.8202 	 -19.205 	 -111.204 	 
H 	 44.6789 	 -20.083 	 -109.333 	 
C 	 47.3704 	 -19.7799 	 -108.496 	 
H 	 46.5994 	 -20.2451 	 -107.831 	 
H 	 47.6169 	 -18.8333 	 -107.981 	 
C 	 48.6702 	 -20.6611 	 -108.626 	 
H 	 49.3602 	 -20.1903 	 -109.31 	 
H 	 49.1035 	 -20.6414 	 -107.631 	 
C 	 48.3281 	 -22.0549 	 -109.109 	 
H 	 49.2041 	 -22.7462 	 -109.03 	 
H 	 47.5085 	 -22.5333 	 -108.57 	 
H 	 48.0552 	 -22.079 	 -110.221 	 
S 	 42.4225 	 -18.0927 	 -111.884 	 
C 	 41.0654 	 -19.1753 	 -112.3 	 
C 	 41.3952 	 -20.5204 	 -112.031 	 
C 	 42.7486 	 -20.6872 	 -111.627 	 
C 	 43.4491 	 -19.4736 	 -111.545 	 
H 	 40.7704 	 -21.366 	 -112.221 	 
C 	 43.3896 	 -22.0609 	 -111.468 	 
H 	 42.4859 	 -22.7271 	 -111.315 	 
H 	 43.9608 	 -22.1789 	 -110.538 	 
C 	 44.224 	 -22.5684 	 -112.721 	 
H 	 43.6889 	 -22.3771 	 -113.663 	 
H 	 44.434 	 -23.6018 	 -112.711 	 
C 	 45.5744 	 -21.8408 	 -112.954 	 
H 	 46.0974 	 -22.3911 	 -113.658 	 
H 	 46.1035 	 -21.8045 	 -111.935 	 
H 	 45.327 	 -20.7918 	 -113.232 	 
H 	 48.3292 	 -18.3616 	 -110.865 	 
H 	 40.0708 	 -18.7563 	 -112.67 	 
