34

S 	 -56.8362 	 19.3336 	 -100.593 	 
C 	 -58.4873 	 19.881 	 -100.855 	 
C 	 -59.3967 	 18.9216 	 -100.391 	 
C 	 -58.7045 	 17.7694 	 -99.8832 	 
C 	 -57.3478 	 17.845 	 -99.8277 	 
H 	 -59.0955 	 16.8728 	 -99.3571 	 
C 	 -60.8728 	 19.0544 	 -100.462 	 
H 	 -61.3612 	 18.0498 	 -100.189 	 
H 	 -61.1133 	 19.0645 	 -101.529 	 
C 	 -61.4465 	 20.2442 	 -99.6598 	 
H 	 -61.2015 	 20.0867 	 -98.6171 	 
H 	 -60.8586 	 21.2274 	 -99.8688 	 
C 	 -62.8928 	 20.4091 	 -100.01 	 
H 	 -63.2209 	 21.2241 	 -99.3956 	 
H 	 -63.0317 	 20.7448 	 -101.017 	 
H 	 -63.4586 	 19.4844 	 -99.9981 	 
S 	 -55.2677 	 16.1611 	 -100.419 	 
C 	 -54.5872 	 15.35 	 -99.032 	 
C 	 -55.2978 	 15.4102 	 -97.8851 	 
C 	 -56.4056 	 16.3674 	 -97.9753 	 
C 	 -56.4362 	 16.9137 	 -99.2918 	 
H 	 -54.9311 	 14.7186 	 -97.0895 	 
C 	 -57.2992 	 16.7222 	 -96.8227 	 
H 	 -57.4234 	 15.8737 	 -96.2048 	 
H 	 -58.2681 	 17.0848 	 -97.2089 	 
C 	 -56.779 	 17.7943 	 -95.8918 	 
H 	 -56.5703 	 18.592 	 -96.5774 	 
H 	 -55.8817 	 17.4354 	 -95.3482 	 
C 	 -57.8406 	 18.2966 	 -94.8771 	 
H 	 -57.4543 	 19.0029 	 -94.1675 	 
H 	 -58.1783 	 17.3774 	 -94.3456 	 
H 	 -58.7892 	 18.6498 	 -95.3311 	 
H 	 -58.9235 	 20.7918 	 -101.223 	 
H 	 -53.8514 	 14.5759 	 -99.0791 	 
