34

S 	 -87.0508 	 -47.4028 	 -70.2691 	 
C 	 -85.381 	 -47.1371 	 -69.8878 	 
C 	 -84.6447 	 -48.0668 	 -70.5782 	 
C 	 -85.4088 	 -49.1052 	 -71.2422 	 
C 	 -86.7217 	 -48.9143 	 -71.0982 	 
H 	 -84.9692 	 -49.9136 	 -71.7906 	 
C 	 -83.087 	 -48.0729 	 -70.5245 	 
H 	 -82.665 	 -48.7833 	 -69.9458 	 
H 	 -82.632 	 -47.1669 	 -70.1075 	 
C 	 -82.4087 	 -48.2609 	 -71.9448 	 
H 	 -81.3426 	 -48.237 	 -71.7736 	 
H 	 -82.5896 	 -49.2118 	 -72.4323 	 
C 	 -82.7317 	 -47.2402 	 -73.0111 	 
H 	 -82.7675 	 -46.2759 	 -72.5696 	 
H 	 -81.9399 	 -47.0448 	 -73.7261 	 
H 	 -83.6423 	 -47.5799 	 -73.4535 	 
S 	 -89.0115 	 -48.7228 	 -72.633 	 
C 	 -89.7609 	 -50.1614 	 -73.214 	 
C 	 -89.1911 	 -51.2559 	 -72.6972 	 
C 	 -88.0189 	 -51.0623 	 -71.8778 	 
C 	 -87.7958 	 -49.6726 	 -71.697 	 
H 	 -89.5512 	 -52.2492 	 -72.9117 	 
C 	 -87.3594 	 -52.1811 	 -71.0877 	 
H 	 -88.2062 	 -52.7907 	 -70.9004 	 
H 	 -86.9227 	 -51.7691 	 -70.175 	 
C 	 -86.3334 	 -52.977 	 -71.8778 	 
H 	 -85.7116 	 -53.4931 	 -71.2021 	 
H 	 -85.6803 	 -52.2728 	 -72.4391 	 
C 	 -86.9292 	 -53.9891 	 -72.8939 	 
H 	 -86.1612 	 -54.3606 	 -73.6028 	 
H 	 -87.6572 	 -53.5152 	 -73.6167 	 
H 	 -87.4144 	 -54.8129 	 -72.4116 	 
H 	 -84.9049 	 -46.2793 	 -69.4141 	 
H 	 -90.6231 	 -50.1964 	 -73.8427 	 
