34

S 	 -63.0846 	 8.63672 	 19.6339 	 
C 	 -61.9202 	 9.91188 	 19.4288 	 
C 	 -61.23 	 10.185 	 20.5874 	 
C 	 -61.8306 	 9.50772 	 21.6808 	 
C 	 -62.8342 	 8.62886 	 21.3146 	 
H 	 -61.557 	 9.62778 	 22.7469 	 
C 	 -60.1855 	 11.2593 	 20.6939 	 
H 	 -60.6669 	 12.1177 	 21.2113 	 
H 	 -59.9628 	 11.622 	 19.6384 	 
C 	 -58.8928 	 10.8102 	 21.289 	 
H 	 -58.9533 	 10.512 	 22.3528 	 
H 	 -58.5751 	 9.90729 	 20.8121 	 
C 	 -57.7219 	 11.7542 	 21.1967 	 
H 	 -56.8257 	 11.2137 	 21.4795 	 
H 	 -57.4623 	 12.1505 	 20.2013 	 
H 	 -57.9011 	 12.6162 	 21.8162 	 
S 	 -64.3074 	 8.26182 	 23.6042 	 
C 	 -65.2314 	 6.81019 	 23.8362 	 
C 	 -64.987 	 5.92541 	 22.8094 	 
C 	 -64.0751 	 6.42256 	 21.8619 	 
C 	 -63.5835 	 7.66565 	 22.139 	 
H 	 -65.587 	 5.00783 	 22.732 	 
C 	 -63.7498 	 5.55025 	 20.6496 	 
H 	 -62.7098 	 5.83467 	 20.3818 	 
H 	 -64.5211 	 5.98355 	 19.8899 	 
C 	 -63.8764 	 4.01055 	 20.7015 	 
H 	 -64.8067 	 3.80888 	 21.2134 	 
H 	 -63.0656 	 3.45471 	 21.216 	 
C 	 -63.9333 	 3.47251 	 19.2808 	 
H 	 -64.785 	 3.94771 	 18.7595 	 
H 	 -64.1411 	 2.43825 	 19.1517 	 
H 	 -63.0004 	 3.67058 	 18.68 	 
H 	 -61.7285 	 10.2914 	 18.4337 	 
H 	 -65.8308 	 6.53404 	 24.6985 	 
