34

S 	 -102.531 	 18.3439 	 -121.365 	 
C 	 -103.579 	 19.5588 	 -120.621 	 
C 	 -103.998 	 19.2181 	 -119.355 	 
C 	 -103.517 	 17.9305 	 -118.95 	 
C 	 -102.734 	 17.3565 	 -119.961 	 
H 	 -103.751 	 17.3032 	 -118.059 	 
C 	 -104.918 	 20.0956 	 -118.51 	 
H 	 -105.967 	 19.9674 	 -118.652 	 
H 	 -104.691 	 21.064 	 -118.9 	 
C 	 -104.555 	 20.3468 	 -117.074 	 
H 	 -105.084 	 19.5592 	 -116.434 	 
H 	 -103.453 	 20.0919 	 -116.869 	 
C 	 -104.945 	 21.7009 	 -116.416 	 
H 	 -106.035 	 21.7092 	 -116.409 	 
H 	 -104.443 	 21.8836 	 -115.444 	 
H 	 -104.631 	 22.4489 	 -117.084 	 
S 	 -100.356 	 16.1992 	 -119.671 	 
C 	 -100.156 	 14.4422 	 -119.753 	 
C 	 -101.407 	 13.8555 	 -119.824 	 
C 	 -102.508 	 14.7459 	 -119.955 	 
C 	 -102.057 	 16.1024 	 -119.872 	 
H 	 -101.49 	 12.8027 	 -119.713 	 
C 	 -103.876 	 14.3025 	 -120.087 	 
H 	 -103.839 	 13.3147 	 -120.474 	 
H 	 -104.281 	 15.0374 	 -120.821 	 
C 	 -104.821 	 14.4602 	 -118.939 	 
H 	 -104.887 	 15.5643 	 -118.786 	 
H 	 -104.466 	 14.0353 	 -118.103 	 
C 	 -106.215 	 14.0277 	 -119.371 	 
H 	 -106.201 	 12.9409 	 -119.557 	 
H 	 -106.55 	 14.4858 	 -120.343 	 
H 	 -106.956 	 14.4353 	 -118.635 	 
H 	 -103.84 	 20.5232 	 -121.072 	 
H 	 -99.224 	 13.9167 	 -119.545 	 
