34

S 	 -124.278 	 66.4494 	 -53.0035 	 
C 	 -123.036 	 67.4449 	 -53.794 	 
C 	 -122.025 	 67.782 	 -52.9702 	 
C 	 -122.162 	 67.1131 	 -51.68 	 
C 	 -123.234 	 66.256 	 -51.5554 	 
H 	 -121.556 	 67.3784 	 -50.8695 	 
C 	 -120.939 	 68.8031 	 -53.2168 	 
H 	 -120.823 	 68.7697 	 -54.3108 	 
H 	 -119.998 	 68.4509 	 -52.8275 	 
C 	 -121.306 	 70.1735 	 -52.8434 	 
H 	 -120.351 	 70.6825 	 -53.0829 	 
H 	 -122.065 	 70.4053 	 -53.5771 	 
C 	 -121.605 	 70.2843 	 -51.285 	 
H 	 -121.692 	 71.3335 	 -50.9558 	 
H 	 -122.645 	 69.8859 	 -51.0853 	 
H 	 -120.924 	 69.8004 	 -50.5915 	 
S 	 -125.509 	 65.7855 	 -50.1939 	 
C 	 -125.518 	 65.1026 	 -48.5995 	 
C 	 -124.25 	 64.7081 	 -48.2472 	 
C 	 -123.236 	 64.9696 	 -49.2138 	 
C 	 -123.757 	 65.6328 	 -50.3498 	 
H 	 -123.949 	 64.1775 	 -47.3744 	 
C 	 -121.792 	 64.7199 	 -48.894 	 
H 	 -121.521 	 64.8093 	 -47.8452 	 
H 	 -121.076 	 65.4766 	 -49.4059 	 
C 	 -121.097 	 63.3998 	 -49.4507 	 
H 	 -121.409 	 63.0856 	 -50.4694 	 
H 	 -121.619 	 62.7388 	 -48.7421 	 
C 	 -119.624 	 63.3306 	 -49.2509 	 
H 	 -119.087 	 62.399 	 -49.5506 	 
H 	 -119.469 	 63.3898 	 -48.238 	 
H 	 -119.16 	 64.1601 	 -49.7465 	 
H 	 -123.129 	 67.995 	 -54.6736 	 
H 	 -126.399 	 64.9267 	 -48.0082 	 
