34

S 	 -104.666 	 48.3258 	 -83.3322 	 
C 	 -103.222 	 49.2104 	 -83.6733 	 
C 	 -102.574 	 48.7076 	 -84.8346 	 
C 	 -103.276 	 47.6436 	 -85.4541 	 
C 	 -104.314 	 47.1927 	 -84.6478 	 
H 	 -102.931 	 47.2021 	 -86.3851 	 
C 	 -101.384 	 49.2872 	 -85.4139 	 
H 	 -100.981 	 49.932 	 -84.6831 	 
H 	 -101.773 	 49.7112 	 -86.3064 	 
C 	 -100.237 	 48.3918 	 -85.7642 	 
H 	 -99.9415 	 47.6374 	 -85.0288 	 
H 	 -100.282 	 47.7109 	 -86.6429 	 
C 	 -98.9611 	 49.181 	 -85.9998 	 
H 	 -98.5843 	 49.5815 	 -85.0472 	 
H 	 -98.1555 	 48.5763 	 -86.4179 	 
H 	 -99.0022 	 50.059 	 -86.6799 	 
S 	 -107.04 	 46.3149 	 -84.7434 	 
C 	 -107.4 	 44.9732 	 -85.686 	 
C 	 -106.266 	 44.2652 	 -86.0873 	 
C 	 -105.06 	 44.9844 	 -85.7656 	 
C 	 -105.29 	 46.214 	 -85.1309 	 
H 	 -106.39 	 43.3582 	 -86.5766 	 
C 	 -103.702 	 44.2899 	 -85.9741 	 
H 	 -102.915 	 44.8439 	 -86.4188 	 
H 	 -103.783 	 43.5773 	 -86.8406 	 
C 	 -103.214 	 43.4985 	 -84.747 	 
H 	 -102.299 	 43.0201 	 -85.2053 	 
H 	 -103.776 	 42.6216 	 -84.6769 	 
C 	 -102.886 	 44.151 	 -83.4261 	 
H 	 -103.709 	 44.7578 	 -83.1339 	 
H 	 -102.025 	 44.7365 	 -83.4503 	 
H 	 -102.833 	 43.4289 	 -82.6303 	 
H 	 -102.818 	 50.0772 	 -83.0304 	 
H 	 -108.391 	 44.6504 	 -85.8424 	 
