34

S 	 -54.9687 	 -1.93115 	 -30.6795 	 
C 	 -55.929 	 -0.793057 	 -31.5407 	 
C 	 -56.6426 	 0.0267982 	 -30.6274 	 
C 	 -56.6794 	 -0.553298 	 -29.3039 	 
C 	 -55.9363 	 -1.70873 	 -29.2314 	 
H 	 -57.1054 	 -0.196692 	 -28.407 	 
C 	 -57.4297 	 1.27642 	 -31.0275 	 
H 	 -56.997 	 1.64978 	 -31.964 	 
H 	 -57.229 	 1.97283 	 -30.2618 	 
C 	 -58.8773 	 1.09251 	 -31.2577 	 
H 	 -59.0812 	 0.71458 	 -32.2379 	 
H 	 -59.3644 	 0.340786 	 -30.6193 	 
C 	 -59.6247 	 2.42831 	 -31.0722 	 
H 	 -60.6607 	 2.12293 	 -30.9096 	 
H 	 -59.3249 	 3.13885 	 -30.3318 	 
H 	 -59.6521 	 2.92905 	 -32.0398 	 
S 	 -57.087 	 -3.30821 	 -27.5529 	 
C 	 -56.1915 	 -4.1216 	 -26.2496 	 
C 	 -54.8711 	 -3.68853 	 -26.1454 	 
C 	 -54.6218 	 -2.70413 	 -27.1377 	 
C 	 -55.6725 	 -2.55189 	 -28.0502 	 
H 	 -54.2352 	 -4.05895 	 -25.3651 	 
C 	 -53.2677 	 -2.10076 	 -27.2447 	 
H 	 -53.0481 	 -1.56298 	 -28.2364 	 
H 	 -52.6189 	 -2.95821 	 -27.1927 	 
C 	 -52.8847 	 -1.18742 	 -26.0651 	 
H 	 -53.2519 	 -1.49668 	 -25.0549 	 
H 	 -53.2974 	 -0.16723 	 -26.3746 	 
C 	 -51.3624 	 -1.13137 	 -26.1381 	 
H 	 -51.1559 	 -0.611907 	 -27.0733 	 
H 	 -50.8435 	 -2.07431 	 -25.9904 	 
H 	 -51.0071 	 -0.483368 	 -25.3886 	 
H 	 -55.7078 	 -0.455183 	 -32.5372 	 
H 	 -56.5879 	 -4.89013 	 -25.6372 	 
