34

S 	 -42.2132 	 -50.5263 	 -69.5583 	 
C 	 -40.5759 	 -50.0165 	 -69.2506 	 
C 	 -39.6988 	 -51.0887 	 -69.3434 	 
C 	 -40.3561 	 -52.3167 	 -69.4896 	 
C 	 -41.724 	 -52.223 	 -69.5802 	 
H 	 -39.8215 	 -53.3367 	 -69.528 	 
C 	 -38.1726 	 -50.7881 	 -69.1459 	 
H 	 -38.0071 	 -49.695 	 -69.1819 	 
H 	 -37.6806 	 -51.1413 	 -70.0331 	 
C 	 -37.5923 	 -51.5226 	 -67.8705 	 
H 	 -37.9019 	 -51.1917 	 -66.8934 	 
H 	 -37.8937 	 -52.5178 	 -67.8786 	 
C 	 -36.1304 	 -51.4473 	 -67.9243 	 
H 	 -35.724 	 -50.4044 	 -67.9481 	 
H 	 -35.8067 	 -52.0017 	 -67.0853 	 
H 	 -35.7064 	 -51.9459 	 -68.7615 	 
S 	 -43.7408 	 -52.9879 	 -71.2822 	 
C 	 -44.5071 	 -54.5244 	 -71.0493 	 
C 	 -43.7958 	 -55.2307 	 -70.1555 	 
C 	 -42.7248 	 -54.5777 	 -69.4761 	 
C 	 -42.6403 	 -53.2928 	 -69.9329 	 
H 	 -44.0008 	 -56.256 	 -69.9497 	 
C 	 -42.1163 	 -55.1713 	 -68.2675 	 
H 	 -41.1396 	 -54.7873 	 -67.8653 	 
H 	 -41.7973 	 -56.1823 	 -68.4234 	 
C 	 -43.119 	 -55.1117 	 -67.1098 	 
H 	 -42.75 	 -55.5013 	 -66.1154 	 
H 	 -44.0572 	 -55.617 	 -67.4041 	 
C 	 -43.4329 	 -53.6789 	 -66.6229 	 
H 	 -44.215 	 -53.7022 	 -65.8529 	 
H 	 -43.788 	 -53.1313 	 -67.475 	 
H 	 -42.5065 	 -53.1849 	 -66.3296 	 
H 	 -40.1317 	 -49.0623 	 -69.1889 	 
H 	 -45.4189 	 -54.8437 	 -71.6592 	 
