34

S 	 -121.171 	 49.6252 	 -24.5137 	 
C 	 -120.151 	 48.2464 	 -24.5865 	 
C 	 -120.244 	 47.5478 	 -25.7582 	 
C 	 -121.251 	 48.1521 	 -26.58 	 
C 	 -121.933 	 49.193 	 -26.0031 	 
H 	 -121.533 	 47.7764 	 -27.5665 	 
C 	 -119.278 	 46.3898 	 -26.127 	 
H 	 -120.004 	 45.6716 	 -26.5077 	 
H 	 -118.734 	 45.9021 	 -25.3527 	 
C 	 -118.224 	 46.6939 	 -27.2254 	 
H 	 -118.884 	 46.8378 	 -28.067 	 
H 	 -117.789 	 47.6416 	 -26.881 	 
C 	 -117.095 	 45.6055 	 -27.5361 	 
H 	 -116.316 	 46.031 	 -28.0673 	 
H 	 -116.662 	 45.1949 	 -26.6498 	 
H 	 -117.501 	 44.77 	 -28.1739 	 
S 	 -123.164 	 51.7 	 -26.107 	 
C 	 -124.863 	 51.8651 	 -26.4754 	 
C 	 -125.263 	 50.6792 	 -27.0113 	 
C 	 -124.275 	 49.6749 	 -27.1465 	 
C 	 -123.136 	 49.9323 	 -26.4165 	 
H 	 -126.212 	 50.6614 	 -27.5473 	 
C 	 -124.637 	 48.3689 	 -27.7776 	 
H 	 -125.669 	 48.2202 	 -27.8697 	 
H 	 -124.346 	 47.6087 	 -27.0963 	 
C 	 -124.036 	 48.0906 	 -29.1462 	 
H 	 -123.043 	 48.5269 	 -29.3236 	 
H 	 -124.617 	 48.5513 	 -29.9363 	 
C 	 -124.191 	 46.5936 	 -29.5433 	 
H 	 -123.731 	 46.0035 	 -28.6966 	 
H 	 -123.62 	 46.6064 	 -30.4972 	 
H 	 -125.193 	 46.2203 	 -29.8122 	 
H 	 -119.441 	 47.9619 	 -23.7859 	 
H 	 -125.489 	 52.7432 	 -26.3805 	 
