34

S 	 -70.6535 	 10.2256 	 -73.3572 	 
C 	 -70.2926 	 11.1227 	 -74.7508 	 
C 	 -68.9427 	 11.004 	 -75.0884 	 
C 	 -68.177 	 10.3282 	 -74.0747 	 
C 	 -68.9511 	 9.8481 	 -73.0634 	 
H 	 -67.1563 	 10.1789 	 -74.0383 	 
C 	 -68.241 	 11.5658 	 -76.3033 	 
H 	 -68.9959 	 11.7651 	 -77.1045 	 
H 	 -67.563 	 10.7398 	 -76.6791 	 
C 	 -67.4108 	 12.8504 	 -76.1392 	 
H 	 -66.6163 	 12.6865 	 -75.3733 	 
H 	 -66.8667 	 13.1211 	 -77.0672 	 
C 	 -68.3423 	 14.078 	 -75.7984 	 
H 	 -68.9982 	 14.3481 	 -76.588 	 
H 	 -68.9541 	 13.8319 	 -74.9262 	 
H 	 -67.7739 	 14.9871 	 -75.5557 	 
S 	 -69.506 	 9.40028 	 -70.4076 	 
C 	 -68.5611 	 8.26505 	 -69.4841 	 
C 	 -67.4304 	 7.94075 	 -70.1906 	 
C 	 -67.3933 	 8.43912 	 -71.5158 	 
C 	 -68.5508 	 9.13101 	 -71.8196 	 
H 	 -66.6637 	 7.26554 	 -69.7043 	 
C 	 -66.3567 	 8.03735 	 -72.5337 	 
H 	 -65.6049 	 7.50565 	 -71.9285 	 
H 	 -65.8956 	 8.90742 	 -72.8922 	 
C 	 -66.7505 	 6.97211 	 -73.5593 	 
H 	 -65.8017 	 6.77147 	 -74.09 	 
H 	 -67.3715 	 7.36743 	 -74.3913 	 
C 	 -67.2931 	 5.76158 	 -72.8149 	 
H 	 -67.2003 	 4.89174 	 -73.469 	 
H 	 -68.2871 	 5.93446 	 -72.4361 	 
H 	 -66.6522 	 5.4839 	 -71.9561 	 
H 	 -71.0745 	 11.4448 	 -75.5083 	 
H 	 -68.7741 	 7.9863 	 -68.4695 	 
