34

S 	 -122.308 	 61.6381 	 -50.4125 	 
C 	 -121.598 	 61.4709 	 -48.8603 	 
C 	 -121.846 	 62.5112 	 -47.9961 	 
C 	 -122.625 	 63.4813 	 -48.6639 	 
C 	 -122.872 	 63.255 	 -50.0094 	 
H 	 -123.002 	 64.4225 	 -48.2356 	 
C 	 -121.399 	 62.461 	 -46.4855 	 
H 	 -120.86 	 61.515 	 -46.468 	 
H 	 -122.217 	 62.2731 	 -45.735 	 
C 	 -120.477 	 63.5387 	 -45.8777 	 
H 	 -120.316 	 63.2221 	 -44.8291 	 
H 	 -119.53 	 63.5278 	 -46.409 	 
C 	 -121.076 	 64.9366 	 -45.8333 	 
H 	 -121.044 	 65.398 	 -46.854 	 
H 	 -122.134 	 64.8507 	 -45.6042 	 
H 	 -120.562 	 65.6501 	 -45.1522 	 
S 	 -122.651 	 64.5895 	 -52.4804 	 
C 	 -123.972 	 65.6067 	 -53.0186 	 
C 	 -124.987 	 65.6601 	 -52.0669 	 
C 	 -124.762 	 64.7721 	 -50.9603 	 
C 	 -123.53 	 64.1249 	 -50.978 	 
H 	 -125.885 	 66.2142 	 -52.3499 	 
C 	 -125.883 	 64.5739 	 -49.957 	 
H 	 -125.986 	 65.4077 	 -49.3707 	 
H 	 -125.58 	 63.8302 	 -49.26 	 
C 	 -127.127 	 64.125 	 -50.6549 	 
H 	 -126.981 	 63.1082 	 -51.076 	 
H 	 -127.47 	 64.6393 	 -51.4771 	 
C 	 -128.262 	 64.1528 	 -49.6218 	 
H 	 -128.071 	 63.6769 	 -48.6451 	 
H 	 -129.082 	 63.5637 	 -49.9622 	 
H 	 -128.592 	 65.124 	 -49.3537 	 
H 	 -121.06 	 60.5037 	 -48.5904 	 
H 	 -124.014 	 66.1007 	 -54.0537 	 
