34

S 	 -105.938 	 43.946 	 -9.77634 	 
C 	 -105.89 	 44.4369 	 -11.4518 	 
C 	 -105.827 	 43.3616 	 -12.328 	 
C 	 -105.761 	 42.1278 	 -11.6293 	 
C 	 -105.943 	 42.2443 	 -10.2384 	 
H 	 -105.68 	 41.1275 	 -12.0249 	 
C 	 -105.742 	 43.5165 	 -13.8396 	 
H 	 -104.902 	 42.9437 	 -14.1487 	 
H 	 -105.365 	 44.5063 	 -13.9066 	 
C 	 -106.993 	 43.1706 	 -14.5806 	 
H 	 -107.352 	 42.2027 	 -14.2522 	 
H 	 -107.846 	 43.7453 	 -14.2437 	 
C 	 -106.889 	 43.3513 	 -16.0917 	 
H 	 -107.741 	 42.9018 	 -16.6405 	 
H 	 -106.687 	 44.3857 	 -16.3691 	 
H 	 -106.013 	 42.8128 	 -16.4523 	 
S 	 -104.719 	 41.2257 	 -7.94908 	 
C 	 -105.26 	 39.7654 	 -7.25671 	 
C 	 -106.125 	 39.1445 	 -8.09926 	 
C 	 -106.561 	 39.9615 	 -9.25575 	 
C 	 -105.925 	 41.2235 	 -9.2233 	 
H 	 -106.392 	 38.1467 	 -7.984 	 
C 	 -107.536 	 39.5272 	 -10.3631 	 
H 	 -106.859 	 39.6281 	 -11.2379 	 
H 	 -108.424 	 40.1999 	 -10.3974 	 
C 	 -108.032 	 38.0844 	 -10.2755 	 
H 	 -108.688 	 37.9097 	 -9.50184 	 
H 	 -107.233 	 37.3695 	 -9.99304 	 
C 	 -108.606 	 37.4971 	 -11.6126 	 
H 	 -107.831 	 37.5076 	 -12.4132 	 
H 	 -109.433 	 38.0747 	 -12.0096 	 
H 	 -108.78 	 36.4109 	 -11.4482 	 
H 	 -105.878 	 45.4906 	 -11.6975 	 
H 	 -104.682 	 39.1273 	 -6.55199 	 
