34

S 	 -87.0608 	 -48.4171 	 -81.8169 	 
C 	 -88.1819 	 -47.6699 	 -80.6371 	 
C 	 -87.5213 	 -46.7438 	 -79.8417 	 
C 	 -86.1588 	 -46.6744 	 -80.2 	 
C 	 -85.7253 	 -47.5122 	 -81.1905 	 
H 	 -85.3968 	 -46.0777 	 -79.8037 	 
C 	 -88.0799 	 -45.8829 	 -78.7178 	 
H 	 -89.011 	 -45.3813 	 -79.1582 	 
H 	 -87.3508 	 -45.2054 	 -78.3995 	 
C 	 -88.5466 	 -46.8387 	 -77.5819 	 
H 	 -89.3264 	 -47.5345 	 -77.9759 	 
H 	 -87.7239 	 -47.5069 	 -77.15 	 
C 	 -89.3195 	 -46.1193 	 -76.4641 	 
H 	 -89.8201 	 -46.8083 	 -75.8561 	 
H 	 -88.5614 	 -45.6696 	 -75.7907 	 
H 	 -90.0008 	 -45.2898 	 -76.733 	 
S 	 -84.0339 	 -47.679 	 -83.2497 	 
C 	 -82.365 	 -47.9124 	 -82.9801 	 
C 	 -82.0603 	 -47.7544 	 -81.6023 	 
C 	 -83.1858 	 -47.6802 	 -80.7916 	 
C 	 -84.3468 	 -47.7485 	 -81.5481 	 
H 	 -81.0025 	 -47.7323 	 -81.388 	 
C 	 -83.116 	 -47.6774 	 -79.3176 	 
H 	 -84.0073 	 -48.0638 	 -78.9023 	 
H 	 -83.2546 	 -46.6484 	 -79.0144 	 
C 	 -81.8803 	 -48.3317 	 -78.7659 	 
H 	 -80.9865 	 -47.6626 	 -78.9414 	 
H 	 -81.6951 	 -49.2169 	 -79.3528 	 
C 	 -82.063 	 -48.682 	 -77.3558 	 
H 	 -82.942 	 -49.2856 	 -77.1605 	 
H 	 -82.2218 	 -47.764 	 -76.7445 	 
H 	 -81.1714 	 -49.1378 	 -76.9044 	 
H 	 -89.176 	 -47.8915 	 -80.427 	 
H 	 -81.5663 	 -47.8932 	 -83.7139 	 
