34

S 	 -135.9 	 67.9213 	 -62.1605 	 
C 	 -136.355 	 68.7597 	 -63.6652 	 
C 	 -137.272 	 69.8059 	 -63.4005 	 
C 	 -137.475 	 69.9736 	 -62.0178 	 
C 	 -136.904 	 68.9848 	 -61.2029 	 
H 	 -138.18 	 70.7129 	 -61.53 	 
C 	 -137.615 	 70.8045 	 -64.4898 	 
H 	 -137.802 	 70.2518 	 -65.4572 	 
H 	 -136.664 	 71.37 	 -64.6852 	 
C 	 -138.817 	 71.7502 	 -64.267 	 
H 	 -138.904 	 72.2015 	 -63.2484 	 
H 	 -138.909 	 72.4268 	 -65.0949 	 
C 	 -140.144 	 70.9973 	 -64.2367 	 
H 	 -140.081 	 70.2815 	 -63.4705 	 
H 	 -140.986 	 71.7559 	 -64.116 	 
H 	 -140.407 	 70.4855 	 -65.2358 	 
S 	 -137.532 	 67.46 	 -59.125 	 
C 	 -137.027 	 68.0075 	 -57.4903 	 
C 	 -136.504 	 69.2386 	 -57.5897 	 
C 	 -136.513 	 69.8319 	 -58.8701 	 
C 	 -136.934 	 68.8979 	 -59.79 	 
H 	 -136.175 	 69.6672 	 -56.6029 	 
C 	 -136.013 	 71.2756 	 -59.1339 	 
H 	 -136.262 	 72.0875 	 -58.4772 	 
H 	 -136.586 	 71.6273 	 -60.0097 	 
C 	 -134.597 	 71.525 	 -59.6573 	 
H 	 -134.561 	 72.574 	 -59.9327 	 
H 	 -134.445 	 71.0237 	 -60.6217 	 
C 	 -133.428 	 71.1936 	 -58.6803 	 
H 	 -133.452 	 70.1673 	 -58.4186 	 
H 	 -133.522 	 71.779 	 -57.7915 	 
H 	 -132.44 	 71.2813 	 -59.1139 	 
H 	 -136.124 	 68.4287 	 -64.6855 	 
H 	 -137.237 	 67.457 	 -56.5482 	 
