34

S 	 -114.872 	 23.1051 	 -117.57 	 
C 	 -115.833 	 21.7344 	 -117.08 	 
C 	 -115.054 	 20.9073 	 -116.291 	 
C 	 -113.694 	 21.1901 	 -116.382 	 
C 	 -113.367 	 22.3604 	 -117.065 	 
H 	 -112.931 	 20.771 	 -115.782 	 
C 	 -115.596 	 19.7441 	 -115.44 	 
H 	 -114.784 	 19.036 	 -115.285 	 
H 	 -116.367 	 19.1686 	 -116.003 	 
C 	 -116.296 	 20.2032 	 -114.163 	 
H 	 -117.136 	 20.8067 	 -114.305 	 
H 	 -116.766 	 19.3305 	 -113.76 	 
C 	 -115.385 	 20.8911 	 -113.161 	 
H 	 -114.736 	 21.6952 	 -113.603 	 
H 	 -115.828 	 21.2204 	 -112.226 	 
H 	 -114.638 	 20.1822 	 -112.79 	 
S 	 -111.89 	 24.7405 	 -117.063 	 
C 	 -110.166 	 24.5949 	 -116.927 	 
C 	 -109.736 	 23.3517 	 -117.246 	 
C 	 -110.786 	 22.4365 	 -117.383 	 
C 	 -112.046 	 22.9405 	 -117.187 	 
H 	 -108.676 	 23.1782 	 -117.44 	 
C 	 -110.456 	 21.052 	 -117.676 	 
H 	 -111.34 	 20.4481 	 -117.325 	 
H 	 -109.661 	 20.77 	 -117.051 	 
C 	 -110.055 	 20.6961 	 -119.164 	 
H 	 -109.288 	 21.4469 	 -119.469 	 
H 	 -110.851 	 20.8863 	 -119.837 	 
C 	 -109.484 	 19.2565 	 -119.239 	 
H 	 -108.634 	 19.332 	 -118.585 	 
H 	 -109.175 	 18.9962 	 -120.293 	 
H 	 -110.048 	 18.4426 	 -118.88 	 
H 	 -116.922 	 21.7093 	 -117.147 	 
H 	 -109.494 	 25.4317 	 -116.731 	 
