34

S 	 -35.7238 	 -7.48323 	 18.7101 	 
C 	 -34.546 	 -8.50119 	 19.4283 	 
C 	 -34.6697 	 -9.78938 	 18.8945 	 
C 	 -35.5571 	 -9.86578 	 17.7972 	 
C 	 -36.3569 	 -8.79508 	 17.711 	 
H 	 -35.604 	 -10.6799 	 17.1151 	 
C 	 -33.796 	 -10.9107 	 19.3277 	 
H 	 -34.3506 	 -11.8493 	 19.1651 	 
H 	 -33.7193 	 -10.9393 	 20.4432 	 
C 	 -32.3883 	 -10.9265 	 18.6777 	 
H 	 -32.0092 	 -11.9946 	 18.9113 	 
H 	 -32.5076 	 -10.8554 	 17.561 	 
C 	 -31.3427 	 -9.95703 	 19.3417 	 
H 	 -30.2801 	 -10.1973 	 19.1173 	 
H 	 -31.5554 	 -8.92546 	 19.1761 	 
H 	 -31.3861 	 -9.98873 	 20.4773 	 
S 	 -38.6666 	 -9.52832 	 16.3636 	 
C 	 -39.2467 	 -8.5838 	 15.0481 	 
C 	 -38.3809 	 -7.45091 	 14.8795 	 
C 	 -37.2744 	 -7.4181 	 15.7439 	 
C 	 -37.2613 	 -8.51865 	 16.5621 	 
H 	 -38.7041 	 -6.70753 	 14.1766 	 
C 	 -36.362 	 -6.24752 	 15.8245 	 
H 	 -35.3592 	 -6.56207 	 16.2365 	 
H 	 -36.8715 	 -5.57753 	 16.5614 	 
C 	 -36.1318 	 -5.50284 	 14.5098 	 
H 	 -35.4088 	 -4.6793 	 14.5937 	 
H 	 -37.0453 	 -4.95351 	 14.2175 	 
C 	 -35.5951 	 -6.39432 	 13.3592 	 
H 	 -36.4529 	 -6.87202 	 12.863 	 
H 	 -34.848 	 -7.14218 	 13.5407 	 
H 	 -35.1053 	 -5.78756 	 12.577 	 
H 	 -33.8745 	 -8.1829 	 20.232 	 
H 	 -40.2739 	 -8.66453 	 14.5812 	 
