34

S 	 -145.184 	 30.2774 	 -14.8185 	 
C 	 -144.429 	 29.3281 	 -16.0025 	 
C 	 -144.282 	 27.955 	 -15.6853 	 
C 	 -144.915 	 27.6476 	 -14.4128 	 
C 	 -145.393 	 28.7734 	 -13.7801 	 
H 	 -145.087 	 26.7002 	 -14.0179 	 
C 	 -143.54 	 26.8542 	 -16.4884 	 
H 	 -143.003 	 26.2857 	 -15.6962 	 
H 	 -142.697 	 27.2518 	 -17.0746 	 
C 	 -144.444 	 25.955 	 -17.3337 	 
H 	 -145.315 	 25.6581 	 -16.8435 	 
H 	 -144.888 	 26.4316 	 -18.1598 	 
C 	 -143.697 	 24.7241 	 -17.8461 	 
H 	 -144.424 	 24.1084 	 -18.3613 	 
H 	 -142.922 	 24.9208 	 -18.5109 	 
H 	 -143.332 	 24.0259 	 -17.0427 	 
S 	 -147.728 	 29.1369 	 -12.7346 	 
C 	 -148.028 	 28.7058 	 -11.0592 	 
C 	 -146.974 	 28.0625 	 -10.4889 	 
C 	 -145.815 	 28.1053 	 -11.3474 	 
C 	 -146.086 	 28.7679 	 -12.5024 	 
H 	 -147 	 27.6773 	 -9.49999 	 
C 	 -144.455 	 27.6249 	 -10.8318 	 
H 	 -143.867 	 26.9935 	 -11.5567 	 
H 	 -144.611 	 26.9484 	 -9.95261 	 
C 	 -143.44 	 28.7432 	 -10.3656 	 
H 	 -142.547 	 28.3354 	 -9.8174 	 
H 	 -143.953 	 29.2432 	 -9.63694 	 
C 	 -142.975 	 29.8548 	 -11.3828 	 
H 	 -142.175 	 29.3935 	 -11.9482 	 
H 	 -142.416 	 30.5742 	 -10.7983 	 
H 	 -143.787 	 30.3154 	 -11.9233 	 
H 	 -144.026 	 29.7582 	 -16.9085 	 
H 	 -148.958 	 28.9014 	 -10.4962 	 
