34

S 	 -41.6606 	 -50.0538 	 -70.8271 	 
C 	 -40.0096 	 -49.5763 	 -70.4104 	 
C 	 -39.9037 	 -49.2451 	 -69.081 	 
C 	 -41.1785 	 -49.3908 	 -68.4267 	 
C 	 -42.2731 	 -49.7639 	 -69.1967 	 
H 	 -41.401 	 -49.2668 	 -67.3823 	 
C 	 -38.5528 	 -48.8499 	 -68.3966 	 
H 	 -37.825 	 -48.3615 	 -69.0037 	 
H 	 -38.0199 	 -49.7177 	 -68.0768 	 
C 	 -38.749 	 -47.9902 	 -67.1558 	 
H 	 -39.475 	 -47.1072 	 -67.3206 	 
H 	 -39.1675 	 -48.585 	 -66.2962 	 
C 	 -37.4605 	 -47.2563 	 -66.6808 	 
H 	 -37.7257 	 -46.4183 	 -66.0335 	 
H 	 -36.703 	 -47.8583 	 -66.2873 	 
H 	 -36.9186 	 -46.8273 	 -67.5552 	 
S 	 -44.6999 	 -50.5881 	 -70.0778 	 
C 	 -46.056 	 -50.6097 	 -69.0263 	 
C 	 -45.7048 	 -50.111 	 -67.8114 	 
C 	 -44.367 	 -49.8393 	 -67.6363 	 
C 	 -43.6598 	 -49.9477 	 -68.8162 	 
H 	 -46.426 	 -49.9965 	 -67.0388 	 
C 	 -43.7992 	 -49.3162 	 -66.273 	 
H 	 -44.6251 	 -49.081 	 -65.5514 	 
H 	 -43.3407 	 -48.3579 	 -66.4038 	 
C 	 -42.9752 	 -50.2767 	 -65.4491 	 
H 	 -42.2604 	 -50.7828 	 -66.1092 	 
H 	 -43.5713 	 -51.1245 	 -65.0671 	 
C 	 -42.1087 	 -49.5978 	 -64.384 	 
H 	 -41.6324 	 -48.6649 	 -64.783 	 
H 	 -41.213 	 -50.1751 	 -64.0211 	 
H 	 -42.7443 	 -49.3317 	 -63.5621 	 
H 	 -39.1675 	 -49.6844 	 -71.0252 	 
H 	 -47.0175 	 -50.7086 	 -69.2926 	 
