34

S 	 39.2437 	 -23.3617 	 -121.453 	 
C 	 38.8889 	 -22.6632 	 -123 	 
C 	 38.5744 	 -23.6964 	 -123.865 	 
C 	 39.0561 	 -24.9608 	 -123.438 	 
C 	 39.3412 	 -25.0071 	 -122.098 	 
H 	 39.0484 	 -25.854 	 -124.006 	 
C 	 37.9709 	 -23.5281 	 -125.253 	 
H 	 37.425 	 -22.5677 	 -125.296 	 
H 	 37.2307 	 -24.3217 	 -125.411 	 
C 	 38.9663 	 -23.5142 	 -126.36 	 
H 	 39.5965 	 -24.3953 	 -126.273 	 
H 	 38.5477 	 -23.3988 	 -127.349 	 
C 	 39.9422 	 -22.2613 	 -126.398 	 
H 	 40.8587 	 -22.5374 	 -126.822 	 
H 	 39.5352 	 -21.481 	 -127.011 	 
H 	 40.2319 	 -21.7898 	 -125.447 	 
S 	 39.119 	 -26.4181 	 -119.796 	 
C 	 39.8388 	 -27.9506 	 -119.549 	 
C 	 40.3884 	 -28.3633 	 -120.753 	 
C 	 40.3981 	 -27.3798 	 -121.777 	 
C 	 39.7768 	 -26.2086 	 -121.397 	 
H 	 40.7996 	 -29.3206 	 -120.776 	 
C 	 41.1204 	 -27.6462 	 -123.09 	 
H 	 40.3894 	 -27.9556 	 -123.975 	 
H 	 41.7096 	 -28.5071 	 -122.766 	 
C 	 42.1745 	 -26.6491 	 -123.524 	 
H 	 42.7835 	 -26.4596 	 -122.649 	 
H 	 41.7342 	 -25.6942 	 -123.77 	 
C 	 43.1176 	 -27.1043 	 -124.617 	 
H 	 42.7974 	 -26.9014 	 -125.689 	 
H 	 43.4622 	 -28.1492 	 -124.476 	 
H 	 43.946 	 -26.4222 	 -124.717 	 
H 	 38.7583 	 -21.5599 	 -123.142 	 
H 	 39.7042 	 -28.6377 	 -118.691 	 
