34

S 	 -40.3671 	 -49.1058 	 -74.626 	 
C 	 -40.2537 	 -47.4733 	 -75.266 	 
C 	 -39.3511 	 -46.7056 	 -74.5714 	 
C 	 -38.6096 	 -47.4523 	 -73.6443 	 
C 	 -39.0192 	 -48.8022 	 -73.5514 	 
H 	 -37.8138 	 -47.1012 	 -73.0171 	 
C 	 -39.1507 	 -45.2052 	 -74.7061 	 
H 	 -40.0417 	 -44.8183 	 -75.2065 	 
H 	 -38.321 	 -44.9885 	 -75.4379 	 
C 	 -38.8992 	 -44.3738 	 -73.4489 	 
H 	 -38.0933 	 -44.7686 	 -72.843 	 
H 	 -38.6016 	 -43.3339 	 -73.6465 	 
C 	 -40.2109 	 -44.2199 	 -72.6511 	 
H 	 -40.7759 	 -43.4249 	 -73.1417 	 
H 	 -40.7301 	 -45.161 	 -72.4575 	 
H 	 -39.9602 	 -43.8334 	 -71.7073 	 
S 	 -39.5741 	 -50.3757 	 -71.4535 	 
C 	 -38.2872 	 -51.3536 	 -70.7688 	 
C 	 -37.0681 	 -51.0933 	 -71.3389 	 
C 	 -37.1856 	 -50.2045 	 -72.4592 	 
C 	 -38.4423 	 -49.7366 	 -72.5877 	 
H 	 -36.1888 	 -51.5814 	 -70.9966 	 
C 	 -35.931 	 -49.7437 	 -73.1686 	 
H 	 -35.0732 	 -50.3009 	 -72.7955 	 
H 	 -35.5872 	 -48.7695 	 -72.8405 	 
C 	 -35.9821 	 -49.8516 	 -74.7067 	 
H 	 -36.6634 	 -49.103 	 -75.1104 	 
H 	 -36.3585 	 -50.7776 	 -75.1317 	 
C 	 -34.6121 	 -49.6885 	 -75.343 	 
H 	 -34.7035 	 -49.54 	 -76.4488 	 
H 	 -34.0708 	 -50.6083 	 -75.0832 	 
H 	 -34.0762 	 -48.7976 	 -74.949 	 
H 	 -40.8893 	 -47.2447 	 -76.0699 	 
H 	 -38.4561 	 -52.1383 	 -70.003 	 
