34

S 	 -46.5079 	 12.0973 	 26.6521 	 
C 	 -45.8126 	 12.9085 	 25.2231 	 
C 	 -46.5936 	 12.7561 	 24.127 	 
C 	 -47.7633 	 12.0236 	 24.4526 	 
C 	 -47.9967 	 11.7495 	 25.792 	 
H 	 -48.529 	 11.6968 	 23.7662 	 
C 	 -46.4497 	 13.2171 	 22.73 	 
H 	 -45.822 	 14.0879 	 22.6494 	 
H 	 -47.3392 	 13.7992 	 22.5998 	 
C 	 -46.1934 	 12.1478 	 21.673 	 
H 	 -46.8695 	 11.3645 	 21.9357 	 
H 	 -46.667 	 12.4178 	 20.6545 	 
C 	 -44.6953 	 11.6459 	 21.7135 	 
H 	 -43.9709 	 12.4385 	 21.3665 	 
H 	 -44.3954 	 11.4438 	 22.7295 	 
H 	 -44.5627 	 10.8555 	 20.9961 	 
S 	 -48.9663 	 9.30974 	 26.4603 	 
C 	 -50.6598 	 9.04589 	 26.7282 	 
C 	 -51.2549 	 10.2779 	 26.927 	 
C 	 -50.3907 	 11.3959 	 26.6149 	 
C 	 -49.1123 	 11.03 	 26.3841 	 
H 	 -52.2926 	 10.3842 	 27.1934 	 
C 	 -51.0108 	 12.7717 	 26.5297 	 
H 	 -52.0433 	 12.7481 	 26.7674 	 
H 	 -50.9268 	 13.0305 	 25.4906 	 
C 	 -50.3974 	 13.8229 	 27.5019 	 
H 	 -51.0514 	 14.6471 	 27.5136 	 
H 	 -49.4374 	 14.1644 	 27.1411 	 
C 	 -50.4509 	 13.3199 	 28.9548 	 
H 	 -51.4788 	 13.0023 	 29.2849 	 
H 	 -50.0997 	 14.0527 	 29.7357 	 
H 	 -49.7907 	 12.3791 	 29.0217 	 
H 	 -44.7688 	 13.0922 	 25.1014 	 
H 	 -51.2141 	 8.11587 	 26.8828 	 
