34

S 	 -119.759 	 33.6696 	 -115.143 	 
C 	 -118.168 	 33.1708 	 -115.871 	 
C 	 -117.123 	 33.4898 	 -114.954 	 
C 	 -117.563 	 33.9946 	 -113.697 	 
C 	 -118.952 	 34.0874 	 -113.658 	 
H 	 -117.025 	 34.2765 	 -112.838 	 
C 	 -115.666 	 33.2337 	 -115.249 	 
H 	 -115.094 	 34.0466 	 -115.014 	 
H 	 -115.606 	 33.2529 	 -116.321 	 
C 	 -115.021 	 31.9736 	 -114.74 	 
H 	 -115.174 	 31.9695 	 -113.755 	 
H 	 -115.61 	 31.2205 	 -115.212 	 
C 	 -113.548 	 31.8913 	 -114.946 	 
H 	 -113.066 	 32.7169 	 -114.515 	 
H 	 -113.165 	 30.974 	 -114.423 	 
H 	 -113.195 	 32.0278 	 -115.985 	 
S 	 -120.962 	 33.82 	 -111.862 	 
C 	 -121.237 	 35.0351 	 -110.649 	 
C 	 -120.346 	 36.1248 	 -110.833 	 
C 	 -119.35 	 35.9164 	 -111.836 	 
C 	 -119.713 	 34.778 	 -112.607 	 
H 	 -120.313 	 36.9443 	 -110.077 	 
C 	 -118.253 	 36.8796 	 -112.174 	 
H 	 -117.311 	 36.3611 	 -112.317 	 
H 	 -118.108 	 37.5531 	 -111.288 	 
C 	 -118.621 	 37.8048 	 -113.372 	 
H 	 -119.61 	 38.3737 	 -113.244 	 
H 	 -118.642 	 37.1638 	 -114.277 	 
C 	 -117.394 	 38.8136 	 -113.587 	 
H 	 -117.123 	 39.4558 	 -112.786 	 
H 	 -117.496 	 39.4951 	 -114.416 	 
H 	 -116.569 	 38.1758 	 -113.731 	 
H 	 -118.005 	 32.8272 	 -116.865 	 
H 	 -121.937 	 34.9127 	 -109.859 	 
