34

S 	 -124.895 	 53.2187 	 -31.5201 	 
C 	 -123.795 	 52.9318 	 -30.1839 	 
C 	 -122.523 	 52.8954 	 -30.6604 	 
C 	 -122.333 	 53.2902 	 -32.0399 	 
C 	 -123.536 	 53.6553 	 -32.6305 	 
H 	 -121.456 	 53.386 	 -32.5951 	 
C 	 -121.331 	 52.39 	 -29.8975 	 
H 	 -120.682 	 51.7182 	 -30.5569 	 
H 	 -121.756 	 51.7459 	 -29.129 	 
C 	 -120.546 	 53.519 	 -29.2096 	 
H 	 -120.233 	 54.2602 	 -29.9946 	 
H 	 -121.089 	 54.1183 	 -28.4857 	 
C 	 -119.383 	 52.89 	 -28.4851 	 
H 	 -118.766 	 53.6761 	 -28.2012 	 
H 	 -119.672 	 52.3906 	 -27.5855 	 
H 	 -118.741 	 52.2029 	 -29.069 	 
S 	 -123.809 	 52.723 	 -35.1301 	 
C 	 -123.859 	 53.8039 	 -36.5129 	 
C 	 -123.823 	 55.0978 	 -36.0826 	 
C 	 -123.568 	 55.2256 	 -34.715 	 
C 	 -123.714 	 54.0401 	 -34.0212 	 
H 	 -123.87 	 55.8559 	 -36.7745 	 
C 	 -123.468 	 56.5287 	 -33.9307 	 
H 	 -124.043 	 56.5319 	 -32.9839 	 
H 	 -123.857 	 57.2892 	 -34.5981 	 
C 	 -122.089 	 57.0801 	 -33.6476 	 
H 	 -121.608 	 57.0044 	 -34.603 	 
H 	 -121.49 	 56.4851 	 -32.9461 	 
C 	 -122.078 	 58.4984 	 -33.058 	 
H 	 -121.105 	 58.9017 	 -33.2737 	 
H 	 -122.318 	 58.5177 	 -32.0154 	 
H 	 -122.863 	 59.1283 	 -33.513 	 
H 	 -124.182 	 52.8423 	 -29.2081 	 
H 	 -124.273 	 53.4467 	 -37.4757 	 
