34

S 	 -98.1198 	 -2.34493 	 -102.285 	 
C 	 -97.6526 	 -2.45576 	 -103.969 	 
C 	 -98.8432 	 -2.77478 	 -104.685 	 
C 	 -99.9952 	 -2.90897 	 -103.871 	 
C 	 -99.7434 	 -2.81959 	 -102.507 	 
H 	 -100.959 	 -3.08693 	 -104.184 	 
C 	 -99.0551 	 -2.7596 	 -106.201 	 
H 	 -98.1541 	 -2.46412 	 -106.665 	 
H 	 -99.7753 	 -1.92023 	 -106.358 	 
C 	 -99.4344 	 -4.06451 	 -106.96 	 
H 	 -100.533 	 -4.03894 	 -107.021 	 
H 	 -99.0804 	 -3.82856 	 -107.985 	 
C 	 -98.835 	 -5.35574 	 -106.424 	 
H 	 -97.7868 	 -5.33597 	 -106.604 	 
H 	 -99.0471 	 -5.42278 	 -105.349 	 
H 	 -99.2782 	 -6.25401 	 -106.901 	 
S 	 -100.409 	 -1.91653 	 -99.9804 	 
C 	 -101.707 	 -2.54084 	 -99.1149 	 
C 	 -102.46 	 -3.3639 	 -99.907 	 
C 	 -101.927 	 -3.561 	 -101.246 	 
C 	 -100.709 	 -2.90971 	 -101.426 	 
H 	 -103.337 	 -3.92387 	 -99.4504 	 
C 	 -102.58 	 -4.47091 	 -102.255 	 
H 	 -102.704 	 -4.02804 	 -103.207 	 
H 	 -103.642 	 -4.61683 	 -101.88 	 
C 	 -101.802 	 -5.80012 	 -102.399 	 
H 	 -101.528 	 -6.25415 	 -101.409 	 
H 	 -100.816 	 -5.54391 	 -102.821 	 
C 	 -102.553 	 -6.9019 	 -103.249 	 
H 	 -101.902 	 -7.72516 	 -103.539 	 
H 	 -103.01 	 -6.47404 	 -104.101 	 
H 	 -103.266 	 -7.26319 	 -102.577 	 
H 	 -96.7858 	 -2.01227 	 -104.42 	 
H 	 -102.022 	 -2.25985 	 -98.1293 	 
