34

S 	 44.4958 	 -20.6733 	 -112.802 	 
C 	 45.7214 	 -21.8552 	 -112.298 	 
C 	 45.1635 	 -23.0631 	 -112.071 	 
C 	 43.8027 	 -23.1174 	 -112.429 	 
C 	 43.3656 	 -21.9616 	 -113.065 	 
H 	 43.1312 	 -23.9556 	 -112.331 	 
C 	 45.8801 	 -24.3215 	 -111.56 	 
H 	 45.2643 	 -25.2541 	 -111.447 	 
H 	 46.0906 	 -24.0573 	 -110.582 	 
C 	 47.2 	 -24.7029 	 -112.359 	 
H 	 48.13 	 -24.1719 	 -112.196 	 
H 	 47.6174 	 -25.677 	 -112.12 	 
C 	 47.0755 	 -24.5988 	 -113.904 	 
H 	 46.3188 	 -25.3448 	 -114.227 	 
H 	 46.6755 	 -23.6763 	 -114.222 	 
H 	 47.9626 	 -24.8081 	 -114.474 	 
S 	 41.1898 	 -20.1934 	 -113.105 	 
C 	 39.8923 	 -20.4927 	 -114.104 	 
C 	 39.9777 	 -21.7881 	 -114.639 	 
C 	 41.2267 	 -22.459 	 -114.324 	 
C 	 42.0248 	 -21.7041 	 -113.531 	 
H 	 39.2839 	 -22.155 	 -115.317 	 
C 	 41.4927 	 -23.7701 	 -115.064 	 
H 	 42.5998 	 -23.7955 	 -115.177 	 
H 	 41.128 	 -23.7559 	 -116.085 	 
C 	 40.9784 	 -25.0938 	 -114.481 	 
H 	 39.9427 	 -24.975 	 -114.284 	 
H 	 41.4812 	 -25.2178 	 -113.525 	 
C 	 41.2383 	 -26.3816 	 -115.264 	 
H 	 42.3176 	 -26.6269 	 -115.439 	 
H 	 40.6962 	 -26.1771 	 -116.207 	 
H 	 40.7049 	 -27.2419 	 -114.809 	 
H 	 46.7042 	 -21.5416 	 -112.223 	 
H 	 39.2163 	 -19.6663 	 -114.321 	 
