34

S 	 -46.2252 	 19.0717 	 23.8002 	 
C 	 -46.7814 	 18.1379 	 22.4361 	 
C 	 -47.5567 	 17.0679 	 22.8623 	 
C 	 -47.4181 	 16.8535 	 24.3059 	 
C 	 -46.6114 	 17.7982 	 24.9308 	 
H 	 -47.913 	 16.0121 	 24.843 	 
C 	 -48.2763 	 16.1022 	 21.9055 	 
H 	 -48.2 	 16.2632 	 20.8303 	 
H 	 -49.3303 	 16.283 	 22.1092 	 
C 	 -47.9877 	 14.574 	 22.1401 	 
H 	 -48.1644 	 14.3043 	 23.1986 	 
H 	 -48.7476 	 13.9415 	 21.6439 	 
C 	 -46.5661 	 14.1067 	 21.6638 	 
H 	 -45.6959 	 14.5696 	 22.154 	 
H 	 -46.5016 	 13.0173 	 21.9359 	 
H 	 -46.3695 	 14.1982 	 20.6286 	 
S 	 -46.6808 	 19.3547 	 27.1272 	 
C 	 -46.0433 	 18.8211 	 28.6026 	 
C 	 -45.4386 	 17.5663 	 28.4999 	 
C 	 -45.588 	 17.0136 	 27.1885 	 
C 	 -46.2585 	 17.891 	 26.3344 	 
H 	 -44.875 	 17.1861 	 29.3406 	 
C 	 -45.1715 	 15.604 	 26.9436 	 
H 	 -44.135 	 15.6034 	 27.0748 	 
H 	 -45.2753 	 15.3602 	 25.8793 	 
C 	 -45.8244 	 14.6001 	 27.8154 	 
H 	 -45.5938 	 14.8627 	 28.8543 	 
H 	 -45.4142 	 13.5437 	 27.6762 	 
C 	 -47.4269 	 14.6625 	 27.6973 	 
H 	 -47.9036 	 14.049 	 28.4299 	 
H 	 -47.5211 	 14.1986 	 26.6859 	 
H 	 -47.7327 	 15.6606 	 27.7187 	 
H 	 -46.5908 	 18.4187 	 21.3646 	 
H 	 -45.981 	 19.3885 	 29.4897 	 
