34

S 	 41.0463 	 -32.169 	 -120.276 	 
C 	 39.7458 	 -31.1824 	 -120.969 	 
C 	 38.5343 	 -31.8613 	 -120.745 	 
C 	 38.571 	 -33.0035 	 -119.943 	 
C 	 39.8203 	 -33.1965 	 -119.491 	 
H 	 37.7307 	 -33.722 	 -119.633 	 
C 	 37.1227 	 -31.5382 	 -121.265 	 
H 	 37.0162 	 -30.3852 	 -121.294 	 
H 	 36.442 	 -32.0564 	 -120.603 	 
C 	 36.8807 	 -32.0939 	 -122.659 	 
H 	 35.9847 	 -31.5964 	 -123.052 	 
H 	 37.7063 	 -31.8711 	 -123.319 	 
C 	 36.4616 	 -33.5194 	 -122.811 	 
H 	 37.3975 	 -34.0687 	 -122.731 	 
H 	 35.8711 	 -33.9012 	 -122.017 	 
H 	 36.1037 	 -33.689 	 -123.808 	 
S 	 41.5961 	 -35.2345 	 -119.565 	 
C 	 41.7561 	 -36.4844 	 -118.282 	 
C 	 40.7345 	 -36.2927 	 -117.331 	 
C 	 39.8356 	 -35.1898 	 -117.681 	 
C 	 40.2511 	 -34.4128 	 -118.823 	 
H 	 40.673 	 -36.8821 	 -116.414 	 
C 	 38.7171 	 -34.7504 	 -116.746 	 
H 	 38.6255 	 -33.658 	 -116.835 	 
H 	 38.9058 	 -34.9476 	 -115.783 	 
C 	 37.3851 	 -35.3852 	 -117.104 	 
H 	 37.2755 	 -35.3426 	 -118.157 	 
H 	 36.5777 	 -34.7065 	 -116.672 	 
C 	 37.1262 	 -36.8128 	 -116.593 	 
H 	 37.9848 	 -37.44 	 -117.01 	 
H 	 36.1804 	 -37.2348 	 -117.014 	 
H 	 37.232 	 -36.8844 	 -115.526 	 
H 	 39.8211 	 -30.4442 	 -121.706 	 
H 	 42.4526 	 -37.3263 	 -118.167 	 
