34

S 	 -135.822 	 27.1389 	 -15.8954 	 
C 	 -135.465 	 26.5874 	 -17.4828 	 
C 	 -135.854 	 27.4993 	 -18.4734 	 
C 	 -135.993 	 28.7757 	 -17.8874 	 
C 	 -135.895 	 28.7612 	 -16.5089 	 
H 	 -136.188 	 29.6436 	 -18.4041 	 
C 	 -135.765 	 27.342 	 -19.9928 	 
H 	 -134.791 	 26.8729 	 -20.2422 	 
H 	 -135.801 	 28.3368 	 -20.3899 	 
C 	 -136.967 	 26.5956 	 -20.6723 	 
H 	 -137.135 	 25.6113 	 -20.2119 	 
H 	 -137.833 	 27.1311 	 -20.5084 	 
C 	 -136.794 	 26.2397 	 -22.1274 	 
H 	 -136.597 	 27.1629 	 -22.654 	 
H 	 -135.933 	 25.5398 	 -22.2559 	 
H 	 -137.644 	 25.8029 	 -22.6539 	 
S 	 -136.34 	 29.5643 	 -13.9133 	 
C 	 -135.767 	 31.1135 	 -13.4342 	 
C 	 -135.491 	 31.9257 	 -14.5506 	 
C 	 -135.439 	 31.1679 	 -15.7683 	 
C 	 -135.832 	 29.8636 	 -15.5929 	 
H 	 -135.274 	 33.0418 	 -14.5005 	 
C 	 -135.042 	 31.8788 	 -17.0669 	 
H 	 -134.75 	 31.0585 	 -17.7814 	 
H 	 -134.063 	 32.3597 	 -16.8398 	 
C 	 -136.083 	 32.8471 	 -17.6422 	 
H 	 -136.293 	 33.5669 	 -16.9112 	 
H 	 -136.986 	 32.2809 	 -17.879 	 
C 	 -135.677 	 33.4572 	 -18.9818 	 
H 	 -135.778 	 32.804 	 -19.8401 	 
H 	 -134.59 	 33.821 	 -19.026 	 
H 	 -136.234 	 34.3792 	 -19.1785 	 
H 	 -135.35 	 25.5798 	 -17.7968 	 
H 	 -136.04 	 31.6582 	 -12.5049 	 
