34

S 	 -112.852 	 55.3791 	 -93.3512 	 
C 	 -112.378 	 56.4485 	 -91.9885 	 
C 	 -112.092 	 57.7343 	 -92.3359 	 
C 	 -112.079 	 57.725 	 -93.7791 	 
C 	 -112.318 	 56.5543 	 -94.4463 	 
H 	 -111.861 	 58.5554 	 -94.3929 	 
C 	 -111.708 	 58.8704 	 -91.4544 	 
H 	 -110.629 	 58.809 	 -91.4406 	 
H 	 -111.906 	 58.6675 	 -90.4078 	 
C 	 -112.369 	 60.2898 	 -91.7723 	 
H 	 -112.215 	 60.9129 	 -90.9368 	 
H 	 -111.904 	 60.7631 	 -92.6539 	 
C 	 -113.893 	 60.1648 	 -91.798 	 
H 	 -114.219 	 59.7006 	 -92.6988 	 
H 	 -114.267 	 59.5656 	 -90.9931 	 
H 	 -114.33 	 61.1608 	 -91.7182 	 
S 	 -113.782 	 55.7606 	 -96.6171 	 
C 	 -113.152 	 56.03 	 -98.2289 	 
C 	 -111.781 	 56.4449 	 -98.1951 	 
C 	 -111.346 	 56.5614 	 -96.8172 	 
C 	 -112.316 	 56.4265 	 -95.8858 	 
H 	 -111.153 	 56.4297 	 -99.0194 	 
C 	 -109.908 	 56.9396 	 -96.6195 	 
H 	 -109.729 	 56.8655 	 -95.558 	 
H 	 -109.721 	 57.9379 	 -96.9536 	 
C 	 -108.878 	 56.1444 	 -97.3592 	 
H 	 -108.946 	 56.3386 	 -98.3802 	 
H 	 -109.007 	 55.0527 	 -97.1195 	 
C 	 -107.458 	 56.5234 	 -96.9444 	 
H 	 -106.819 	 55.9554 	 -97.6435 	 
H 	 -107.213 	 56.2216 	 -95.9277 	 
H 	 -107.31 	 57.5444 	 -97.004 	 
H 	 -112.573 	 56.1298 	 -90.9721 	 
H 	 -113.73 	 55.7578 	 -99.0819 	 
