34

S 	 -41.217 	 -2.39915 	 -17.5106 	 
C 	 -42.719 	 -3.24999 	 -17.8234 	 
C 	 -42.5699 	 -4.61634 	 -17.6357 	 
C 	 -41.2869 	 -4.99144 	 -17.2284 	 
C 	 -40.4915 	 -3.9182 	 -16.9628 	 
H 	 -41.0162 	 -5.9986 	 -17.0552 	 
C 	 -43.6521 	 -5.62934 	 -17.8126 	 
H 	 -44.5331 	 -5.08372 	 -17.532 	 
H 	 -43.5876 	 -6.47115 	 -17.127 	 
C 	 -43.9009 	 -5.96763 	 -19.2874 	 
H 	 -44.6627 	 -6.68662 	 -19.3619 	 
H 	 -44.2333 	 -5.07767 	 -19.8142 	 
C 	 -42.6224 	 -6.62103 	 -19.8076 	 
H 	 -41.8522 	 -5.92978 	 -19.8772 	 
H 	 -42.2878 	 -7.40865 	 -19.0491 	 
H 	 -42.6874 	 -7.11625 	 -20.844 	 
S 	 -37.9553 	 -3.33278 	 -17.7348 	 
C 	 -36.7071 	 -3.2042 	 -16.5147 	 
C 	 -36.9725 	 -3.99676 	 -15.4086 	 
C 	 -38.3972 	 -4.39889 	 -15.3757 	 
C 	 -39.073 	 -3.98558 	 -16.5359 	 
H 	 -36.2014 	 -4.08388 	 -14.6333 	 
C 	 -39.0686 	 -5.0112 	 -14.2478 	 
H 	 -38.6393 	 -5.99602 	 -14.115 	 
H 	 -40.0248 	 -5.38571 	 -14.6122 	 
C 	 -39.1398 	 -4.23002 	 -12.9423 	 
H 	 -39.5985 	 -3.28591 	 -13.194 	 
H 	 -38.1113 	 -3.91486 	 -12.7025 	 
C 	 -39.7878 	 -4.89019 	 -11.6846 	 
H 	 -40.7801 	 -5.22013 	 -11.9282 	 
H 	 -39.6756 	 -4.32796 	 -10.8106 	 
H 	 -39.2981 	 -5.82807 	 -11.5439 	 
H 	 -43.6201 	 -2.70906 	 -18.1941 	 
H 	 -35.7052 	 -2.77821 	 -16.6533 	 
