34

S 	 -131.46 	 9.67661 	 -8.104 	 
C 	 -129.85 	 10.041 	 -7.567 	 
C 	 -129.397 	 11.2719 	 -7.99345 	 
C 	 -130.386 	 11.9315 	 -8.74686 	 
C 	 -131.445 	 11.0925 	 -9.00039 	 
H 	 -130.267 	 12.8482 	 -9.20934 	 
C 	 -128.044 	 11.9144 	 -7.68991 	 
H 	 -128.407 	 12.9429 	 -7.5986 	 
H 	 -127.391 	 11.9136 	 -8.57323 	 
C 	 -127.361 	 11.5237 	 -6.39882 	 
H 	 -126.836 	 12.4091 	 -5.99945 	 
H 	 -128.116 	 11.2692 	 -5.65222 	 
C 	 -126.329 	 10.3342 	 -6.52006 	 
H 	 -125.887 	 10.5335 	 -7.46157 	 
H 	 -125.671 	 10.3463 	 -5.64525 	 
H 	 -126.815 	 9.32298 	 -6.51732 	 
S 	 -134.204 	 11.4996 	 -8.88223 	 
C 	 -135.011 	 12.0033 	 -10.3773 	 
C 	 -134.099 	 12.0751 	 -11.4177 	 
C 	 -132.767 	 11.7952 	 -11.0817 	 
C 	 -132.631 	 11.4507 	 -9.72545 	 
H 	 -134.522 	 12.3359 	 -12.4149 	 
C 	 -131.684 	 11.7587 	 -12.1079 	 
H 	 -132.012 	 11.1128 	 -12.9285 	 
H 	 -130.821 	 11.301 	 -11.6122 	 
C 	 -131.206 	 13.1548 	 -12.6673 	 
H 	 -130.762 	 13.6599 	 -11.8432 	 
H 	 -132.081 	 13.782 	 -12.9468 	 
C 	 -130.247 	 13.0453 	 -13.8411 	 
H 	 -129.416 	 12.4103 	 -13.6317 	 
H 	 -129.866 	 13.9906 	 -14.1585 	 
H 	 -130.813 	 12.5905 	 -14.6756 	 
H 	 -129.235 	 9.40573 	 -6.92899 	 
H 	 -136.037 	 12.2825 	 -10.613 	 
