34

S 	 -83.0921 	 -8.79497 	 -55.5761 	 
C 	 -84.3824 	 -9.9465 	 -55.4361 	 
C 	 -85.4439 	 -9.60029 	 -56.2432 	 
C 	 -85.1279 	 -8.44803 	 -57.0613 	 
C 	 -83.8006 	 -8.03113 	 -56.9909 	 
H 	 -85.6792 	 -7.93337 	 -57.8325 	 
C 	 -86.7664 	 -10.2826 	 -56.3617 	 
H 	 -86.6468 	 -11.2967 	 -55.9015 	 
H 	 -86.9301 	 -10.4076 	 -57.386 	 
C 	 -87.875 	 -9.46632 	 -55.8357 	 
H 	 -87.5764 	 -9.13594 	 -54.8241 	 
H 	 -87.8768 	 -8.50127 	 -56.3836 	 
C 	 -89.2654 	 -10.0843 	 -55.9875 	 
H 	 -89.2125 	 -11.062 	 -55.5358 	 
H 	 -90.0302 	 -9.51442 	 -55.5811 	 
H 	 -89.5037 	 -10.3722 	 -57.0098 	 
S 	 -82.5977 	 -5.65705 	 -56.4576 	 
C 	 -81.8364 	 -4.73249 	 -57.6768 	 
C 	 -82.2572 	 -5.17636 	 -58.8592 	 
C 	 -83.0418 	 -6.39851 	 -58.8501 	 
C 	 -83.19 	 -6.84721 	 -57.5642 	 
H 	 -81.9036 	 -4.59939 	 -59.6745 	 
C 	 -83.4989 	 -7.13262 	 -60.1106 	 
H 	 -84.2199 	 -6.47988 	 -60.5384 	 
H 	 -83.8933 	 -8.10271 	 -59.7366 	 
C 	 -82.4256 	 -7.34302 	 -61.2444 	 
H 	 -81.6251 	 -8.02025 	 -60.7917 	 
H 	 -82.0003 	 -6.36605 	 -61.327 	 
C 	 -83.0353 	 -8.08315 	 -62.5601 	 
H 	 -83.1812 	 -9.16507 	 -62.4711 	 
H 	 -82.4651 	 -7.91513 	 -63.5243 	 
H 	 -84.0803 	 -7.78718 	 -62.8004 	 
H 	 -84.2652 	 -10.762 	 -54.7353 	 
H 	 -81.0423 	 -3.94973 	 -57.5862 	 
