34

S 	 -43.8529 	 -1.18388 	 -21.3719 	 
C 	 -43.8485 	 -0.299013 	 -19.9389 	 
C 	 -42.8879 	 -0.696288 	 -18.9995 	 
C 	 -42.1886 	 -1.82575 	 -19.4597 	 
C 	 -42.6026 	 -2.29329 	 -20.6985 	 
H 	 -41.4721 	 -2.36793 	 -18.8123 	 
C 	 -42.843 	 -0.187763 	 -17.562 	 
H 	 -42.7743 	 -1.09741 	 -16.993 	 
H 	 -43.7006 	 0.298545 	 -17.2168 	 
C 	 -41.637 	 0.665083 	 -17.1809 	 
H 	 -41.8524 	 1.25275 	 -16.3045 	 
H 	 -40.786 	 -0.0367201 	 -17.0728 	 
C 	 -41.2769 	 1.73253 	 -18.2396 	 
H 	 -42.2043 	 2.13506 	 -18.7194 	 
H 	 -40.8895 	 2.59079 	 -17.701 	 
H 	 -40.6347 	 1.25572 	 -19.0457 	 
S 	 -43.2531 	 -4.81998 	 -21.3625 	 
C 	 -42.1081 	 -5.86113 	 -22.1103 	 
C 	 -40.8593 	 -5.24404 	 -22.2971 	 
C 	 -40.8921 	 -3.8607 	 -21.8158 	 
C 	 -42.1359 	 -3.5057 	 -21.3431 	 
H 	 -40.0136 	 -5.7669 	 -22.7093 	 
C 	 -39.6941 	 -2.94141 	 -21.9151 	 
H 	 -39.0555 	 -3.39007 	 -21.169 	 
H 	 -39.9075 	 -1.88952 	 -21.5781 	 
C 	 -38.9143 	 -2.88648 	 -23.2786 	 
H 	 -38.169 	 -3.61696 	 -23.2353 	 
H 	 -38.34 	 -1.95991 	 -23.3778 	 
C 	 -39.7873 	 -2.9548 	 -24.52 	 
H 	 -40.4016 	 -3.83474 	 -24.5765 	 
H 	 -39.0185 	 -3.06518 	 -25.3713 	 
H 	 -40.423 	 -2.13515 	 -24.6364 	 
H 	 -44.6378 	 0.456855 	 -19.6808 	 
H 	 -42.2455 	 -6.87243 	 -22.428 	 
