34

S 	 -88.5962 	 -31.224 	 -61.5642 	 
C 	 -89.3802 	 -31.885 	 -62.9389 	 
C 	 -89.9871 	 -33.0656 	 -62.6194 	 
C 	 -89.9275 	 -33.3204 	 -61.2283 	 
C 	 -88.9806 	 -32.5992 	 -60.5969 	 
H 	 -90.5376 	 -34.0908 	 -60.6695 	 
C 	 -90.8008 	 -33.9654 	 -63.5279 	 
H 	 -91.5087 	 -33.3433 	 -64.0533 	 
H 	 -91.3844 	 -34.6292 	 -62.9283 	 
C 	 -90.0474 	 -34.7265 	 -64.6039 	 
H 	 -89.4161 	 -34.0503 	 -65.2471 	 
H 	 -89.2838 	 -35.4093 	 -64.1781 	 
C 	 -90.9108 	 -35.4547 	 -65.6657 	 
H 	 -91.6634 	 -35.9565 	 -65.1154 	 
H 	 -91.2819 	 -34.7612 	 -66.4276 	 
H 	 -90.3748 	 -36.2859 	 -66.1881 	 
S 	 -88.1567 	 -34.2785 	 -58.6339 	 
C 	 -87.8169 	 -33.6405 	 -57.0291 	 
C 	 -87.6363 	 -32.2468 	 -57.0612 	 
C 	 -88.2223 	 -31.6892 	 -58.2067 	 
C 	 -88.5313 	 -32.6846 	 -59.2133 	 
H 	 -87.4168 	 -31.7924 	 -56.1005 	 
C 	 -88.5219 	 -30.2491 	 -58.4502 	 
H 	 -89.4602 	 -30.1584 	 -59.1135 	 
H 	 -87.6811 	 -29.8113 	 -58.9426 	 
C 	 -88.9422 	 -29.4583 	 -57.1942 	 
H 	 -89.3827 	 -28.5511 	 -57.6192 	 
H 	 -88.1873 	 -29.2086 	 -56.5165 	 
C 	 -90.1253 	 -30.1622 	 -56.4742 	 
H 	 -90.2314 	 -29.9168 	 -55.4427 	 
H 	 -90.0138 	 -31.2963 	 -56.5156 	 
H 	 -90.9503 	 -29.8771 	 -57.019 	 
H 	 -89.2907 	 -31.4179 	 -63.9161 	 
H 	 -87.6765 	 -34.2052 	 -56.1279 	 
