34

S 	 -102.731 	 1.00975 	 -103.48 	 
C 	 -103.222 	 0.105198 	 -104.937 	 
C 	 -104.168 	 -0.888654 	 -104.607 	 
C 	 -104.229 	 -1.02254 	 -103.183 	 
C 	 -103.515 	 -0.143412 	 -102.43 	 
H 	 -104.798 	 -1.69767 	 -102.599 	 
C 	 -104.995 	 -1.81683 	 -105.495 	 
H 	 -105.284 	 -2.64268 	 -104.856 	 
H 	 -104.355 	 -2.28044 	 -106.258 	 
C 	 -106.265 	 -1.10955 	 -106.144 	 
H 	 -106.698 	 -0.40768 	 -105.412 	 
H 	 -105.976 	 -0.653088 	 -107.029 	 
C 	 -107.478 	 -2.08422 	 -106.366 	 
H 	 -108.291 	 -1.57682 	 -106.937 	 
H 	 -107.076 	 -2.96676 	 -106.825 	 
H 	 -107.942 	 -2.55858 	 -105.485 	 
S 	 -102.274 	 -1.1428 	 -100.19 	 
C 	 -102.488 	 -0.345298 	 -98.6917 	 
C 	 -103.551 	 0.53366 	 -98.7537 	 
C 	 -104.057 	 0.669882 	 -100.062 	 
C 	 -103.459 	 -0.165188 	 -100.967 	 
H 	 -104.035 	 0.913707 	 -97.8443 	 
C 	 -105.103 	 1.68895 	 -100.542 	 
H 	 -105.006 	 1.81905 	 -101.597 	 
H 	 -104.919 	 2.59132 	 -99.9463 	 
C 	 -106.551 	 1.25071 	 -100.384 	 
H 	 -107.145 	 2.0705 	 -100.784 	 
H 	 -106.785 	 1.13532 	 -99.3168 	 
C 	 -106.969 	 -0.0146146 	 -101.101 	 
H 	 -107.983 	 -0.35155 	 -100.866 	 
H 	 -106.305 	 -0.838114 	 -100.928 	 
H 	 -106.941 	 0.134248 	 -102.173 	 
H 	 -102.979 	 0.512995 	 -105.871 	 
H 	 -101.986 	 -0.596769 	 -97.7676 	 
