34

S 	 -98.6527 	 -24.6441 	 -64.9219 	 
C 	 -100.185 	 -24.2706 	 -65.7749 	 
C 	 -101.18 	 -23.8431 	 -64.9154 	 
C 	 -100.548 	 -23.4588 	 -63.6769 	 
C 	 -99.1596 	 -23.5331 	 -63.5846 	 
H 	 -100.944 	 -22.9812 	 -62.8184 	 
C 	 -102.644 	 -23.6966 	 -65.274 	 
H 	 -103.23 	 -24.0051 	 -64.3719 	 
H 	 -102.934 	 -24.3547 	 -66.0981 	 
C 	 -103.029 	 -22.2145 	 -65.6886 	 
H 	 -102.984 	 -21.6848 	 -64.677 	 
H 	 -102.248 	 -21.9528 	 -66.3327 	 
C 	 -104.419 	 -22.0277 	 -66.2308 	 
H 	 -105.169 	 -22.3051 	 -65.4689 	 
H 	 -104.57 	 -21.0733 	 -66.5037 	 
H 	 -104.669 	 -22.7004 	 -67.0631 	 
S 	 -97.935 	 -24.5623 	 -61.369 	 
C 	 -96.9188 	 -23.5344 	 -60.436 	 
C 	 -96.9406 	 -22.2475 	 -60.7801 	 
C 	 -97.7587 	 -22.0424 	 -61.8986 	 
C 	 -98.2704 	 -23.256 	 -62.4364 	 
H 	 -96.2949 	 -21.4717 	 -60.3518 	 
C 	 -97.7104 	 -20.564 	 -62.5376 	 
H 	 -97.0991 	 -19.8804 	 -61.9383 	 
H 	 -98.7517 	 -20.1606 	 -62.4862 	 
C 	 -97.047 	 -20.4611 	 -63.9724 	 
H 	 -97.3305 	 -21.3573 	 -64.5898 	 
H 	 -95.978 	 -20.4502 	 -63.8579 	 
C 	 -97.5109 	 -19.08 	 -64.6375 	 
H 	 -97.048 	 -19.0247 	 -65.6154 	 
H 	 -97.2752 	 -18.28 	 -64.0214 	 
H 	 -98.5666 	 -19.1977 	 -64.7564 	 
H 	 -100.469 	 -24.516 	 -66.7684 	 
H 	 -96.2797 	 -23.9559 	 -59.6558 	 
