34

S 	 -114.876 	 38.5303 	 -117.011 	 
C 	 -113.356 	 38.0446 	 -117.77 	 
C 	 -112.405 	 37.6487 	 -116.87 	 
C 	 -112.886 	 37.8185 	 -115.503 	 
C 	 -114.232 	 38.2516 	 -115.47 	 
H 	 -112.414 	 37.6528 	 -114.613 	 
C 	 -110.987 	 37.2119 	 -117.217 	 
H 	 -110.454 	 37.7827 	 -117.985 	 
H 	 -111.088 	 36.2519 	 -117.675 	 
C 	 -109.986 	 37.1319 	 -116.078 	 
H 	 -109.913 	 38.0219 	 -115.525 	 
H 	 -110.34 	 36.3782 	 -115.419 	 
C 	 -108.581 	 36.865 	 -116.623 	 
H 	 -108.701 	 36.0741 	 -117.392 	 
H 	 -108.267 	 37.8343 	 -117.011 	 
H 	 -107.904 	 36.5633 	 -115.816 	 
S 	 -115.861 	 40.0416 	 -114.127 	 
C 	 -116.157 	 39.8085 	 -112.397 	 
C 	 -115.664 	 38.59 	 -112.001 	 
C 	 -115.11 	 37.7783 	 -113.034 	 
C 	 -114.986 	 38.4984 	 -114.258 	 
H 	 -115.731 	 38.3128 	 -110.976 	 
C 	 -114.538 	 36.367 	 -112.873 	 
H 	 -114.676 	 36.1326 	 -111.856 	 
H 	 -113.475 	 36.2742 	 -113.146 	 
C 	 -115.244 	 35.2877 	 -113.651 	 
H 	 -114.868 	 35.2668 	 -114.662 	 
H 	 -116.268 	 35.5295 	 -113.78 	 
C 	 -115.15 	 33.9339 	 -112.969 	 
H 	 -115.455 	 33.0949 	 -113.607 	 
H 	 -115.883 	 33.9125 	 -112.181 	 
H 	 -114.117 	 33.8081 	 -112.561 	 
H 	 -113.196 	 38.0457 	 -118.813 	 
H 	 -116.578 	 40.4949 	 -111.685 	 
