34

S 	 -59.6833 	 16.9405 	 -86.4646 	 
C 	 -60.6942 	 17.6945 	 -87.6686 	 
C 	 -60.0909 	 18.8979 	 -88.0818 	 
C 	 -58.8602 	 19.1927 	 -87.4359 	 
C 	 -58.436 	 18.2121 	 -86.5519 	 
H 	 -58.2736 	 20.0534 	 -87.663 	 
C 	 -60.5149 	 19.7119 	 -89.2924 	 
H 	 -60.1272 	 20.7159 	 -89.211 	 
H 	 -61.6274 	 19.8096 	 -89.2672 	 
C 	 -60.1625 	 19.1555 	 -90.6481 	 
H 	 -60.5059 	 18.1296 	 -90.5473 	 
H 	 -60.8185 	 19.622 	 -91.3583 	 
C 	 -58.6264 	 19.2313 	 -91.0445 	 
H 	 -58.0432 	 18.501 	 -90.4511 	 
H 	 -58.4974 	 18.9851 	 -92.0987 	 
H 	 -58.1301 	 20.1404 	 -90.9956 	 
S 	 -57.5563 	 17.7911 	 -84.0533 	 
C 	 -55.8883 	 18.1391 	 -83.6032 	 
C 	 -55.1114 	 18.3585 	 -84.7416 	 
C 	 -55.8656 	 18.3633 	 -85.9755 	 
C 	 -57.2174 	 18.1521 	 -85.7025 	 
H 	 -54.0636 	 18.5627 	 -84.594 	 
C 	 -55.271 	 18.6225 	 -87.3359 	 
H 	 -54.7913 	 19.6195 	 -87.2835 	 
H 	 -56.1492 	 18.7689 	 -87.9389 	 
C 	 -54.3812 	 17.5214 	 -87.9818 	 
H 	 -54.8812 	 16.5424 	 -87.9408 	 
H 	 -53.4361 	 17.388 	 -87.5036 	 
C 	 -54.0048 	 17.7216 	 -89.4558 	 
H 	 -53.3433 	 17.0402 	 -89.9306 	 
H 	 -53.583 	 18.6717 	 -89.6584 	 
H 	 -54.8894 	 17.6338 	 -90.1107 	 
H 	 -61.607 	 17.2891 	 -88.0048 	 
H 	 -55.4861 	 17.9848 	 -82.58 	 
