34

S 	 46.0979 	 -18.8125 	 -115.443 	 
C 	 46.9356 	 -18.8509 	 -113.908 	 
C 	 47.2099 	 -17.6086 	 -113.425 	 
C 	 46.799 	 -16.6217 	 -114.376 	 
C 	 46.014 	 -17.0655 	 -115.402 	 
H 	 47.0656 	 -15.5481 	 -114.307 	 
C 	 48.04 	 -17.3624 	 -112.211 	 
H 	 48.0353 	 -18.2424 	 -111.532 	 
H 	 47.5457 	 -16.4821 	 -111.675 	 
C 	 49.4432 	 -16.9018 	 -112.505 	 
H 	 49.866 	 -17.6859 	 -113.076 	 
H 	 49.4241 	 -16.0394 	 -113.262 	 
C 	 50.3459 	 -16.5681 	 -111.282 	 
H 	 51.2776 	 -15.9954 	 -111.613 	 
H 	 49.8724 	 -15.9764 	 -110.528 	 
H 	 50.8008 	 -17.4372 	 -110.818 	 
S 	 46.4451 	 -16.1917 	 -117.986 	 
C 	 45.407 	 -15.0032 	 -118.681 	 
C 	 44.3991 	 -14.6137 	 -117.816 	 
C 	 44.564 	 -15.2685 	 -116.537 	 
C 	 45.5243 	 -16.251 	 -116.532 	 
H 	 43.633 	 -13.8581 	 -118.154 	 
C 	 43.6808 	 -15.0358 	 -115.339 	 
H 	 44.2964 	 -14.9683 	 -114.452 	 
H 	 43.0916 	 -15.9471 	 -115.181 	 
C 	 42.6816 	 -13.8 	 -115.416 	 
H 	 42.1059 	 -13.6519 	 -116.318 	 
H 	 43.3294 	 -12.9223 	 -115.484 	 
C 	 41.8905 	 -13.5636 	 -114.094 	 
H 	 41.4003 	 -14.5577 	 -113.909 	 
H 	 41.1456 	 -12.7711 	 -114.235 	 
H 	 42.5322 	 -13.2838 	 -113.311 	 
H 	 47.1818 	 -19.7485 	 -113.36 	 
H 	 45.4395 	 -14.5809 	 -119.666 	 
