34

S 	 -57.6092 	 14.0281 	 -88.536 	 
C 	 -56.6157 	 12.7383 	 -89.1423 	 
C 	 -55.269 	 13.0314 	 -89.0483 	 
C 	 -54.9616 	 14.3349 	 -88.6052 	 
C 	 -56.0881 	 15.0544 	 -88.3387 	 
H 	 -53.9957 	 14.7398 	 -88.4247 	 
C 	 -54.2039 	 12.0068 	 -89.3151 	 
H 	 -53.7305 	 12.3587 	 -90.3099 	 
H 	 -54.7844 	 11.0641 	 -89.4289 	 
C 	 -53.1217 	 11.9243 	 -88.1997 	 
H 	 -52.7001 	 12.8581 	 -87.937 	 
H 	 -53.6799 	 11.8455 	 -87.2643 	 
C 	 -52.1184 	 10.7679 	 -88.2046 	 
H 	 -52.4659 	 9.80799 	 -88.4383 	 
H 	 -51.2898 	 11.0198 	 -88.8921 	 
H 	 -51.7488 	 10.6538 	 -87.1999 	 
S 	 -57.7529 	 16.7727 	 -87.0544 	 
C 	 -57.3691 	 18.4961 	 -86.9358 	 
C 	 -56.1827 	 18.7522 	 -87.5961 	 
C 	 -55.4879 	 17.5725 	 -87.9913 	 
C 	 -56.218 	 16.393 	 -87.8489 	 
H 	 -55.858 	 19.8074 	 -87.7093 	 
C 	 -54.1951 	 17.8489 	 -88.6726 	 
H 	 -53.5703 	 17.0067 	 -88.3827 	 
H 	 -53.7486 	 18.7842 	 -88.4034 	 
C 	 -54.1929 	 17.9217 	 -90.2482 	 
H 	 -54.2733 	 18.952 	 -90.5943 	 
H 	 -54.9703 	 17.3099 	 -90.5341 	 
C 	 -52.8761 	 17.3405 	 -90.8175 	 
H 	 -52.1118 	 17.9056 	 -90.3322 	 
H 	 -52.7853 	 17.6109 	 -91.915 	 
H 	 -52.6018 	 16.3026 	 -90.5721 	 
H 	 -56.9766 	 11.7382 	 -89.3116 	 
H 	 -58.0739 	 19.2201 	 -86.531 	 
