34

S 	 -125.809 	 68.8366 	 -53.3307 	 
C 	 -124.891 	 68.3029 	 -54.7398 	 
C 	 -124.082 	 69.3133 	 -55.18 	 
C 	 -124.197 	 70.5466 	 -54.4426 	 
C 	 -125.047 	 70.4279 	 -53.3535 	 
H 	 -123.639 	 71.4614 	 -54.584 	 
C 	 -123.121 	 69.1455 	 -56.3086 	 
H 	 -122.504 	 68.2915 	 -56.0733 	 
H 	 -122.301 	 69.9619 	 -56.4005 	 
C 	 -123.746 	 68.9891 	 -57.7374 	 
H 	 -124.439 	 69.8212 	 -57.9786 	 
H 	 -122.832 	 69.1525 	 -58.3398 	 
C 	 -124.291 	 67.677 	 -58.2669 	 
H 	 -123.555 	 66.8839 	 -58.0796 	 
H 	 -125.153 	 67.3547 	 -57.7268 	 
H 	 -124.578 	 67.6222 	 -59.3034 	 
S 	 -126.745 	 72.2506 	 -52.2991 	 
C 	 -126.129 	 73.3234 	 -51.0869 	 
C 	 -124.873 	 73.0727 	 -50.6866 	 
C 	 -124.283 	 72.0561 	 -51.4225 	 
C 	 -125.201 	 71.4614 	 -52.3134 	 
H 	 -124.443 	 73.5756 	 -49.9303 	 
C 	 -122.888 	 71.6359 	 -51.0989 	 
H 	 -122.746 	 70.7421 	 -51.6226 	 
H 	 -122.914 	 71.3822 	 -50.0883 	 
C 	 -121.722 	 72.5738 	 -51.4688 	 
H 	 -121.861 	 73.4005 	 -50.7742 	 
H 	 -121.719 	 72.928 	 -52.5005 	 
C 	 -120.357 	 71.8481 	 -51.3131 	 
H 	 -119.611 	 72.6643 	 -51.3263 	 
H 	 -120.196 	 71.2472 	 -52.1862 	 
H 	 -120.276 	 71.2762 	 -50.3657 	 
H 	 -125.061 	 67.376 	 -55.256 	 
H 	 -126.775 	 73.9922 	 -50.6431 	 
