34

S 	 -48.8173 	 10.4164 	 -21.0847 	 
C 	 -50.5227 	 10.0646 	 -20.7075 	 
C 	 -51.2424 	 11.2504 	 -20.7674 	 
C 	 -50.4846 	 12.2992 	 -21.302 	 
C 	 -49.178 	 12.0427 	 -21.4614 	 
H 	 -50.7588 	 13.2891 	 -21.4949 	 
C 	 -52.7093 	 11.2969 	 -20.4419 	 
H 	 -52.9444 	 12.3845 	 -20.3424 	 
H 	 -52.7907 	 10.8722 	 -19.4465 	 
C 	 -53.587 	 10.5401 	 -21.537 	 
H 	 -53.1977 	 11.0301 	 -22.4814 	 
H 	 -53.278 	 9.45396 	 -21.4583 	 
C 	 -55.1031 	 10.7318 	 -21.445 	 
H 	 -55.7204 	 10.3671 	 -22.2375 	 
H 	 -55.3896 	 10.1536 	 -20.58 	 
H 	 -55.3884 	 11.8241 	 -21.2814 	 
S 	 -47.0879 	 12.6968 	 -23.2008 	 
C 	 -46.2316 	 14.183 	 -23.014 	 
C 	 -46.7963 	 14.9009 	 -21.9901 	 
C 	 -47.8407 	 14.2374 	 -21.2998 	 
C 	 -48.1479 	 13.0105 	 -21.819 	 
H 	 -46.3903 	 15.8581 	 -21.7497 	 
C 	 -48.4874 	 14.78 	 -20.0789 	 
H 	 -47.6371 	 15.053 	 -19.3964 	 
H 	 -48.9773 	 13.9554 	 -19.5343 	 
C 	 -49.5446 	 15.9119 	 -20.3302 	 
H 	 -50.2848 	 15.6621 	 -20.9906 	 
H 	 -48.9246 	 16.7426 	 -20.8339 	 
C 	 -50.1687 	 16.3897 	 -19.072 	 
H 	 -49.3528 	 16.8297 	 -18.4414 	 
H 	 -50.5037 	 15.4669 	 -18.5566 	 
H 	 -50.9425 	 17.1303 	 -19.248 	 
H 	 -50.755 	 9.14488 	 -20.138 	 
H 	 -45.391 	 14.4525 	 -23.5915 	 
