34

S 	 -33.4857 	 15.7017 	 15.9625 	 
C 	 -31.8314 	 16.1444 	 16.2957 	 
C 	 -31.212 	 16.5248 	 15.1265 	 
C 	 -32.0354 	 16.415 	 13.986 	 
C 	 -33.2947 	 15.99 	 14.2655 	 
H 	 -31.7955 	 16.759 	 12.9483 	 
C 	 -29.772 	 16.9552 	 14.9776 	 
H 	 -29.4323 	 17.4203 	 15.8722 	 
H 	 -29.6339 	 17.8615 	 14.4021 	 
C 	 -28.8237 	 15.8255 	 14.6435 	 
H 	 -28.9635 	 14.8922 	 15.2125 	 
H 	 -29.1173 	 15.504 	 13.6089 	 
C 	 -27.3658 	 16.3107 	 14.7227 	 
H 	 -27.0809 	 17.0001 	 15.5591 	 
H 	 -26.6119 	 15.4624 	 14.7889 	 
H 	 -27.0466 	 16.864 	 13.8154 	 
S 	 -34.9023 	 13.9466 	 13.4586 	 
C 	 -36.1041 	 14.1976 	 12.2303 	 
C 	 -35.8918 	 15.3837 	 11.5917 	 
C 	 -34.7799 	 16.1059 	 12.1565 	 
C 	 -34.2292 	 15.5433 	 13.262 	 
H 	 -36.4305 	 15.5984 	 10.6874 	 
C 	 -34.2907 	 17.4881 	 11.6419 	 
H 	 -33.2661 	 17.2242 	 11.3616 	 
H 	 -34.2538 	 18.1249 	 12.5481 	 
C 	 -34.9617 	 18.1911 	 10.4847 	 
H 	 -35.9192 	 18.4757 	 10.7985 	 
H 	 -35.1679 	 17.5134 	 9.69501 	 
C 	 -34.0534 	 19.337 	 10.1667 	 
H 	 -33.1206 	 18.9301 	 9.96787 	 
H 	 -33.9901 	 20.0523 	 10.9444 	 
H 	 -34.3928 	 19.9899 	 9.3371 	 
H 	 -31.2955 	 15.9147 	 17.2183 	 
H 	 -36.793 	 13.4151 	 11.8711 	 
