34

S 	 -113.752 	 58.3646 	 -91.0156 	 
C 	 -112.329 	 57.9423 	 -90.0547 	 
C 	 -111.105 	 58.0409 	 -90.7234 	 
C 	 -111.31 	 58.3096 	 -92.0491 	 
C 	 -112.652 	 58.4989 	 -92.4449 	 
H 	 -110.571 	 58.2869 	 -92.8953 	 
C 	 -109.81 	 57.5803 	 -90.1544 	 
H 	 -109.38 	 56.8347 	 -90.8438 	 
H 	 -110.027 	 57.0684 	 -89.242 	 
C 	 -108.69 	 58.6626 	 -89.8618 	 
H 	 -107.822 	 58.1154 	 -89.5374 	 
H 	 -108.44 	 59.1108 	 -90.7652 	 
C 	 -108.944 	 59.7775 	 -88.753 	 
H 	 -109.526 	 60.6296 	 -89.2493 	 
H 	 -109.389 	 59.4274 	 -87.8225 	 
H 	 -108.08 	 60.2701 	 -88.3076 	 
S 	 -114.545 	 59.9852 	 -93.835 	 
C 	 -114.492 	 60.0712 	 -95.605 	 
C 	 -113.503 	 59.2466 	 -96.1199 	 
C 	 -112.806 	 58.5697 	 -95.1094 	 
C 	 -113.148 	 58.8946 	 -93.7962 	 
H 	 -113.452 	 59.2432 	 -97.1642 	 
C 	 -111.725 	 57.56 	 -95.4732 	 
H 	 -112.073 	 56.9159 	 -96.2675 	 
H 	 -111.623 	 56.9197 	 -94.6307 	 
C 	 -110.406 	 58.2924 	 -95.6961 	 
H 	 -110.388 	 59.0327 	 -94.8817 	 
H 	 -110.437 	 59.0857 	 -96.4876 	 
C 	 -109.116 	 57.4604 	 -95.8879 	 
H 	 -108.212 	 58.0591 	 -95.99 	 
H 	 -109.214 	 56.8806 	 -96.8192 	 
H 	 -108.951 	 56.7985 	 -95.0139 	 
H 	 -112.135 	 57.5654 	 -89.1071 	 
H 	 -115.325 	 60.6533 	 -96.1335 	 
