34

S 	 -127.209 	 65.5793 	 -48.5843 	 
C 	 -127.116 	 67.1222 	 -47.7195 	 
C 	 -127.986 	 68.0464 	 -48.2222 	 
C 	 -128.793 	 67.4564 	 -49.3062 	 
C 	 -128.471 	 66.1138 	 -49.6302 	 
H 	 -129.56 	 68.001 	 -49.7679 	 
C 	 -128.069 	 69.4295 	 -47.7291 	 
H 	 -127.267 	 69.5959 	 -46.9157 	 
H 	 -129.01 	 69.6376 	 -47.2222 	 
C 	 -127.966 	 70.45 	 -48.8339 	 
H 	 -126.974 	 70.5517 	 -49.2311 	 
H 	 -128.536 	 70.1092 	 -49.7253 	 
C 	 -128.621 	 71.7658 	 -48.5185 	 
H 	 -129.713 	 71.743 	 -48.2318 	 
H 	 -128.085 	 72.3506 	 -47.6418 	 
H 	 -128.474 	 72.4086 	 -49.3778 	 
S 	 -127.956 	 64.922 	 -52.015 	 
C 	 -129.292 	 64.4181 	 -53.0373 	 
C 	 -130.407 	 64.2347 	 -52.2316 	 
C 	 -130.301 	 64.8416 	 -50.9458 	 
C 	 -129.012 	 65.3589 	 -50.7219 	 
H 	 -131.358 	 63.9929 	 -52.6267 	 
C 	 -131.444 	 64.7794 	 -49.906 	 
H 	 -131.072 	 65.2919 	 -48.9787 	 
H 	 -131.583 	 63.7497 	 -49.746 	 
C 	 -132.749 	 65.4658 	 -50.3748 	 
H 	 -133.007 	 65.0836 	 -51.4127 	 
H 	 -132.472 	 66.5643 	 -50.4771 	 
C 	 -133.835 	 65.4174 	 -49.3609 	 
H 	 -133.449 	 65.6852 	 -48.3633 	 
H 	 -134.163 	 64.3994 	 -49.0933 	 
H 	 -134.733 	 66.0188 	 -49.6592 	 
H 	 -126.506 	 67.2617 	 -46.7588 	 
H 	 -129.167 	 64.2371 	 -54.0925 	 
