34

S 	 -127.461 	 60.2093 	 -55.9056 	 
C 	 -126.084 	 60.9658 	 -55.2031 	 
C 	 -126.487 	 61.9243 	 -54.2916 	 
C 	 -127.895 	 62.0863 	 -54.2732 	 
C 	 -128.62 	 61.2133 	 -55.1005 	 
H 	 -128.329 	 62.8559 	 -53.6665 	 
C 	 -125.525 	 62.6973 	 -53.4117 	 
H 	 -124.515 	 62.6649 	 -53.8276 	 
H 	 -125.54 	 62.1232 	 -52.5372 	 
C 	 -125.9 	 64.2675 	 -53.194 	 
H 	 -126.856 	 64.4585 	 -52.6126 	 
H 	 -125.262 	 64.8496 	 -52.4606 	 
C 	 -126.039 	 65.1289 	 -54.5539 	 
H 	 -125.373 	 64.7519 	 -55.2544 	 
H 	 -126.988 	 65.133 	 -54.9347 	 
H 	 -125.727 	 66.1572 	 -54.3866 	 
S 	 -130.674 	 61.1263 	 -56.8577 	 
C 	 -132.296 	 61.1033 	 -56.1954 	 
C 	 -132.373 	 60.9194 	 -54.8649 	 
C 	 -131.076 	 61.0326 	 -54.2659 	 
C 	 -130.06 	 61.0239 	 -55.2333 	 
H 	 -133.341 	 60.9826 	 -54.4056 	 
C 	 -130.893 	 60.9579 	 -52.7924 	 
H 	 -131.936 	 61.1383 	 -52.3983 	 
H 	 -130.267 	 61.8229 	 -52.3567 	 
C 	 -130.505 	 59.6299 	 -52.2091 	 
H 	 -129.563 	 59.3091 	 -52.6406 	 
H 	 -131.384 	 58.9816 	 -52.4345 	 
C 	 -130.217 	 59.5327 	 -50.7055 	 
H 	 -131.107 	 59.8781 	 -50.24 	 
H 	 -129.352 	 60.1637 	 -50.3467 	 
H 	 -130.131 	 58.4893 	 -50.3935 	 
H 	 -125.103 	 60.6704 	 -55.4354 	 
H 	 -133.249 	 61.2729 	 -56.6994 	 
