34

S 	 37.604 	 -32.7248 	 -124.859 	 
C 	 38.3928 	 -33.8018 	 -123.689 	 
C 	 37.5735 	 -34.3721 	 -122.734 	 
C 	 36.2601 	 -33.8671 	 -122.924 	 
C 	 36.143 	 -32.9697 	 -123.987 	 
H 	 35.4001 	 -34.0263 	 -122.277 	 
C 	 38.0284 	 -35.1588 	 -121.63 	 
H 	 38.5264 	 -36.0487 	 -122.008 	 
H 	 37.151 	 -35.6269 	 -121.214 	 
C 	 38.7006 	 -34.3516 	 -120.511 	 
H 	 37.8155 	 -33.697 	 -120.232 	 
H 	 38.7826 	 -34.9795 	 -119.585 	 
C 	 40.0764 	 -33.6603 	 -120.728 	 
H 	 40.0118 	 -32.6009 	 -120.901 	 
H 	 40.8035 	 -33.7679 	 -119.92 	 
H 	 40.6062 	 -33.9833 	 -121.686 	 
S 	 34.4127 	 -32.867 	 -126.154 	 
C 	 32.7811 	 -32.2904 	 -125.925 	 
C 	 32.5903 	 -31.7606 	 -124.666 	 
C 	 33.7643 	 -31.9341 	 -123.799 	 
C 	 34.8038 	 -32.5309 	 -124.444 	 
H 	 31.6372 	 -31.1845 	 -124.494 	 
C 	 33.6963 	 -31.4382 	 -122.316 	 
H 	 33.7793 	 -30.3336 	 -122.377 	 
H 	 34.6792 	 -31.7633 	 -121.855 	 
C 	 32.526 	 -31.933 	 -121.477 	 
H 	 32.3328 	 -32.9679 	 -121.867 	 
H 	 31.5688 	 -31.4927 	 -121.902 	 
C 	 32.8532 	 -31.7609 	 -119.968 	 
H 	 32.1339 	 -32.2307 	 -119.246 	 
H 	 32.6702 	 -30.6456 	 -119.74 	 
H 	 33.8866 	 -32.1269 	 -119.68 	 
H 	 39.4787 	 -34.0001 	 -123.87 	 
H 	 32.0728 	 -32.2857 	 -126.793 	 
