34

S 	 -148.995 	 6.21658 	 4.69277 	 
C 	 -149.692 	 5.09264 	 5.86681 	 
C 	 -149.74 	 5.68052 	 7.13096 	 
C 	 -149.11 	 6.89917 	 7.20445 	 
C 	 -148.85 	 7.40426 	 5.95761 	 
H 	 -149.118 	 7.50963 	 8.08936 	 
C 	 -150.24 	 4.91438 	 8.41284 	 
H 	 -149.608 	 5.14201 	 9.23804 	 
H 	 -150.089 	 3.87497 	 8.18432 	 
C 	 -151.736 	 4.95699 	 8.67657 	 
H 	 -152.351 	 4.5784 	 7.86483 	 
H 	 -152.025 	 4.41299 	 9.54136 	 
C 	 -152.21 	 6.35913 	 8.89573 	 
H 	 -153.234 	 6.34349 	 9.26197 	 
H 	 -151.603 	 6.85128 	 9.63881 	 
H 	 -152.193 	 6.96295 	 7.96519 	 
S 	 -149.99 	 9.98165 	 6.14066 	 
C 	 -149.063 	 11.2999 	 5.41359 	 
C 	 -147.901 	 10.8257 	 4.81338 	 
C 	 -147.707 	 9.44877 	 4.9359 	 
C 	 -148.755 	 8.82148 	 5.59179 	 
H 	 -147.334 	 11.5749 	 4.40102 	 
C 	 -146.41 	 8.73061 	 4.54275 	 
H 	 -146.476 	 7.69676 	 4.86367 	 
H 	 -145.658 	 9.14346 	 5.20283 	 
C 	 -145.95 	 8.89396 	 3.03602 	 
H 	 -145.742 	 9.90424 	 2.74604 	 
H 	 -146.841 	 8.56411 	 2.49296 	 
C 	 -144.735 	 7.98598 	 2.50156 	 
H 	 -144.466 	 8.24477 	 1.44371 	 
H 	 -144.905 	 6.90719 	 2.49124 	 
H 	 -143.751 	 8.26102 	 2.94587 	 
H 	 -150.174 	 4.13682 	 5.56984 	 
H 	 -149.513 	 12.2377 	 5.29475 	 
