34

S 	 -60.7117 	 8.60423 	 -18.8913 	 
C 	 -62.1293 	 8.59669 	 -17.93 	 
C 	 -62.9998 	 7.62479 	 -18.3778 	 
C 	 -62.3454 	 6.68316 	 -19.2286 	 
C 	 -61.0508 	 7.04739 	 -19.5331 	 
H 	 -62.7951 	 5.87948 	 -19.7598 	 
C 	 -64.3927 	 7.31066 	 -17.805 	 
H 	 -65.063 	 8.15381 	 -17.8249 	 
H 	 -64.1907 	 7.17405 	 -16.7674 	 
C 	 -65.1156 	 5.96162 	 -18.2252 	 
H 	 -65.4132 	 5.97986 	 -19.2624 	 
H 	 -64.3969 	 5.21834 	 -18.2827 	 
C 	 -66.3395 	 5.60937 	 -17.2797 	 
H 	 -66.669 	 4.57333 	 -17.6502 	 
H 	 -66.0466 	 5.57413 	 -16.2037 	 
H 	 -66.9941 	 6.4774 	 -17.3485 	 
S 	 -59.3386 	 7.2997 	 -21.5434 	 
C 	 -58.6465 	 5.90048 	 -22.3153 	 
C 	 -59.0062 	 4.69893 	 -21.6914 	 
C 	 -59.7735 	 5.00803 	 -20.503 	 
C 	 -60.141 	 6.3475 	 -20.3404 	 
H 	 -58.8419 	 3.75099 	 -22.2515 	 
C 	 -60.2387 	 3.89723 	 -19.5786 	 
H 	 -61.1277 	 4.1797 	 -18.9663 	 
H 	 -59.472 	 4.10327 	 -18.7843 	 
C 	 -60.2699 	 2.42091 	 -19.9642 	 
H 	 -60.2729 	 1.74957 	 -19.098 	 
H 	 -59.4168 	 2.16131 	 -20.5523 	 
C 	 -61.4804 	 2.05889 	 -20.9037 	 
H 	 -61.3514 	 1.24979 	 -21.6722 	 
H 	 -61.7051 	 2.84161 	 -21.5624 	 
H 	 -62.3348 	 1.72651 	 -20.2759 	 
H 	 -62.3507 	 9.43948 	 -17.2843 	 
H 	 -58.2733 	 5.93227 	 -23.3661 	 
