34

S 	 -122.578 	 68.6404 	 -39.6913 	 
C 	 -122.567 	 69.671 	 -38.2376 	 
C 	 -123.861 	 70.1177 	 -37.92 	 
C 	 -124.818 	 69.5179 	 -38.783 	 
C 	 -124.289 	 68.8246 	 -39.8791 	 
H 	 -125.87 	 69.6814 	 -38.7886 	 
C 	 -124.262 	 70.9704 	 -36.6791 	 
H 	 -125.048 	 71.6926 	 -37.0562 	 
H 	 -123.357 	 71.5488 	 -36.5763 	 
C 	 -124.495 	 70.1364 	 -35.3784 	 
H 	 -125 	 70.7058 	 -34.6114 	 
H 	 -125.064 	 69.2764 	 -35.752 	 
C 	 -123.16 	 69.658 	 -34.7089 	 
H 	 -122.494 	 69.0847 	 -35.3032 	 
H 	 -122.478 	 70.4836 	 -34.3546 	 
H 	 -123.37 	 69.1314 	 -33.7825 	 
S 	 -125.462 	 69.6574 	 -42.2346 	 
C 	 -126.207 	 68.5069 	 -43.3299 	 
C 	 -126.045 	 67.2429 	 -42.8219 	 
C 	 -125.271 	 67.143 	 -41.6382 	 
C 	 -125.022 	 68.3587 	 -41.0573 	 
H 	 -126.53 	 66.4725 	 -43.3189 	 
C 	 -124.889 	 65.8789 	 -40.9263 	 
H 	 -125.777 	 65.2871 	 -40.7366 	 
H 	 -124.509 	 66.1386 	 -39.9815 	 
C 	 -123.783 	 65.0761 	 -41.5548 	 
H 	 -122.876 	 65.5558 	 -41.2987 	 
H 	 -123.975 	 65.0054 	 -42.6404 	 
C 	 -123.731 	 63.6775 	 -41.001 	 
H 	 -123.348 	 62.9749 	 -41.7693 	 
H 	 -124.663 	 63.187 	 -40.8241 	 
H 	 -123.044 	 63.602 	 -40.1755 	 
H 	 -121.645 	 70.0675 	 -37.7773 	 
H 	 -126.832 	 68.7052 	 -44.1973 	 
