34

S 	 -62.8766 	 15.749 	 -91.2174 	 
C 	 -62.9383 	 17.1752 	 -92.2966 	 
C 	 -62.7306 	 18.3863 	 -91.5799 	 
C 	 -62.6292 	 18.1263 	 -90.1526 	 
C 	 -62.5088 	 16.7807 	 -89.8364 	 
H 	 -62.528 	 18.857 	 -89.3621 	 
C 	 -62.925 	 19.7424 	 -92.2023 	 
H 	 -63.1132 	 19.7148 	 -93.2748 	 
H 	 -61.9082 	 20.178 	 -92.1036 	 
C 	 -63.923 	 20.7529 	 -91.5616 	 
H 	 -63.8884 	 20.8815 	 -90.4653 	 
H 	 -63.6897 	 21.7658 	 -91.9037 	 
C 	 -65.4117 	 20.3579 	 -91.8983 	 
H 	 -65.7995 	 19.6341 	 -91.1897 	 
H 	 -66.0454 	 21.1829 	 -91.9668 	 
H 	 -65.4615 	 19.769 	 -92.83 	 
S 	 -63.4503 	 15.175 	 -87.7444 	 
C 	 -62.6338 	 15.0921 	 -86.2503 	 
C 	 -61.5075 	 15.8263 	 -86.3358 	 
C 	 -61.2641 	 16.5032 	 -87.6081 	 
C 	 -62.3108 	 16.2656 	 -88.5086 	 
H 	 -60.8272 	 15.8457 	 -85.472 	 
C 	 -60.1117 	 17.5517 	 -87.8417 	 
H 	 -59.5993 	 17.7625 	 -86.9313 	 
H 	 -60.5313 	 18.4594 	 -88.3269 	 
C 	 -59.0931 	 16.9742 	 -88.8397 	 
H 	 -58.4158 	 17.7773 	 -89.0985 	 
H 	 -59.6676 	 16.6365 	 -89.6939 	 
C 	 -58.0992 	 15.8958 	 -88.3118 	 
H 	 -58.5426 	 14.9779 	 -87.9704 	 
H 	 -57.5323 	 16.2989 	 -87.4872 	 
H 	 -57.4302 	 15.3712 	 -89.0994 	 
H 	 -62.9684 	 17.1856 	 -93.3547 	 
H 	 -62.8988 	 14.334 	 -85.5422 	 
