34

S 	 -90.617 	 -34.8356 	 -66.4632 	 
C 	 -91.5699 	 -35.8452 	 -67.5568 	 
C 	 -92.9223 	 -35.4087 	 -67.6777 	 
C 	 -93.0919 	 -34.1154 	 -66.9998 	 
C 	 -91.9866 	 -33.722 	 -66.2839 	 
H 	 -93.9459 	 -33.4738 	 -66.9872 	 
C 	 -94.0502 	 -36.084 	 -68.3947 	 
H 	 -93.6031 	 -36.6745 	 -69.1512 	 
H 	 -94.6557 	 -35.3166 	 -68.8371 	 
C 	 -94.8918 	 -36.9524 	 -67.4217 	 
H 	 -94.2375 	 -37.7735 	 -67.007 	 
H 	 -95.1789 	 -36.3333 	 -66.5545 	 
C 	 -96.0634 	 -37.6422 	 -68.0933 	 
H 	 -95.8689 	 -38.4161 	 -68.9335 	 
H 	 -96.5772 	 -38.2315 	 -67.363 	 
H 	 -96.6861 	 -36.8374 	 -68.5808 	 
S 	 -91.1225 	 -32.3519 	 -64.0189 	 
C 	 -91.046 	 -30.6032 	 -64.1072 	 
C 	 -91.5274 	 -30.0785 	 -65.2646 	 
C 	 -91.8295 	 -31.1316 	 -66.2392 	 
C 	 -91.7832 	 -32.39 	 -65.6844 	 
H 	 -91.5487 	 -29.0446 	 -65.4376 	 
C 	 -92.3014 	 -30.8032 	 -67.6379 	 
H 	 -93.3473 	 -30.654 	 -67.5976 	 
H 	 -92.1317 	 -31.6847 	 -68.2966 	 
C 	 -91.4982 	 -29.6427 	 -68.3434 	 
H 	 -90.5502 	 -30.013 	 -68.6526 	 
H 	 -91.3463 	 -28.6823 	 -67.7099 	 
C 	 -92.2179 	 -29.3845 	 -69.7242 	 
H 	 -91.8595 	 -28.5396 	 -70.1867 	 
H 	 -93.2906 	 -29.1552 	 -69.4221 	 
H 	 -92.2898 	 -30.3101 	 -70.3639 	 
H 	 -91.2492 	 -36.7046 	 -68.1194 	 
H 	 -90.8916 	 -29.966 	 -63.2271 	 
