34

S 	 -140.209 	 6.91552 	 1.38227 	 
C 	 -140.632 	 7.5925 	 -0.175751 	 
C 	 -141.894 	 8.20601 	 -0.144369 	 
C 	 -142.487 	 7.98361 	 1.13038 	 
C 	 -141.796 	 7.26643 	 2.08511 	 
H 	 -143.417 	 8.43456 	 1.44281 	 
C 	 -142.501 	 9.08963 	 -1.27887 	 
H 	 -143.55 	 9.16107 	 -1.03346 	 
H 	 -142.489 	 8.49299 	 -2.1837 	 
C 	 -141.997 	 10.4339 	 -1.54463 	 
H 	 -142.095 	 11.0632 	 -0.714867 	 
H 	 -140.975 	 10.4109 	 -1.82903 	 
C 	 -142.935 	 11.1402 	 -2.57189 	 
H 	 -143.911 	 11.4137 	 -2.182 	 
H 	 -142.456 	 12.0733 	 -2.96375 	 
H 	 -143.13 	 10.5356 	 -3.50666 	 
S 	 -141.003 	 6.47206 	 4.62839 	 
C 	 -142.113 	 6.39758 	 5.89186 	 
C 	 -143.392 	 6.3732 	 5.42908 	 
C 	 -143.475 	 6.55849 	 4.02423 	 
C 	 -142.248 	 6.8156 	 3.42038 	 
H 	 -144.264 	 6.21011 	 6.06919 	 
C 	 -144.787 	 6.58805 	 3.3378 	 
H 	 -144.588 	 6.40985 	 2.29823 	 
H 	 -145.203 	 7.60589 	 3.45335 	 
C 	 -145.824 	 5.66007 	 3.91216 	 
H 	 -145.961 	 6.05598 	 4.88598 	 
H 	 -145.319 	 4.6666 	 3.98982 	 
C 	 -147.129 	 5.43418 	 3.2412 	 
H 	 -147.811 	 5.01639 	 3.91812 	 
H 	 -147.025 	 4.72518 	 2.39192 	 
H 	 -147.773 	 6.28804 	 2.73931 	 
H 	 -140.005 	 7.73107 	 -1.0806 	 
H 	 -141.83 	 6.15952 	 6.89032 	 
