34

S 	 46.9719 	 -15.6224 	 -118.051 	 
C 	 47.6712 	 -15.9048 	 -116.514 	 
C 	 48.2251 	 -14.7708 	 -115.994 	 
C 	 48.0092 	 -13.6366 	 -116.855 	 
C 	 47.1306 	 -13.8196 	 -117.896 	 
H 	 48.5408 	 -12.7152 	 -116.747 	 
C 	 49.1181 	 -14.6799 	 -114.772 	 
H 	 50.1957 	 -14.6894 	 -114.964 	 
H 	 49.0756 	 -15.6658 	 -114.331 	 
C 	 48.7077 	 -13.6231 	 -113.748 	 
H 	 48.7186 	 -12.6153 	 -114.118 	 
H 	 47.6347 	 -13.6812 	 -113.54 	 
C 	 49.4949 	 -13.7805 	 -112.467 	 
H 	 49.0795 	 -13.1043 	 -111.72 	 
H 	 49.2815 	 -14.801 	 -112.042 	 
H 	 50.5786 	 -13.5667 	 -112.514 	 
S 	 46.815 	 -13.3856 	 -120.568 	 
C 	 46.3052 	 -11.7764 	 -121.115 	 
C 	 46.039 	 -10.9662 	 -120.082 	 
C 	 46.1294 	 -11.5921 	 -118.763 	 
C 	 46.7184 	 -12.8677 	 -118.915 	 
H 	 45.8139 	 -9.93727 	 -120.286 	 
C 	 45.9623 	 -10.8675 	 -117.384 	 
H 	 45.8629 	 -11.7746 	 -116.761 	 
H 	 45.0194 	 -10.2864 	 -117.295 	 
C 	 47.1159 	 -9.99285 	 -117.01 	 
H 	 47.2989 	 -9.20742 	 -117.785 	 
H 	 48.0581 	 -10.5771 	 -116.9 	 
C 	 46.9051 	 -9.25276 	 -115.68 	 
H 	 45.9922 	 -8.62856 	 -115.773 	 
H 	 47.853 	 -8.62026 	 -115.536 	 
H 	 46.7391 	 -9.71507 	 -114.724 	 
H 	 47.7413 	 -16.8993 	 -116.044 	 
H 	 46.2912 	 -11.4756 	 -122.113 	 
