34

S 	 -33.8521 	 -48.3076 	 -76.2693 	 
C 	 -32.8341 	 -47.742 	 -77.655 	 
C 	 -31.6966 	 -47.0544 	 -77.2081 	 
C 	 -31.6583 	 -47.1005 	 -75.765 	 
C 	 -32.6955 	 -47.7302 	 -75.1137 	 
H 	 -30.8405 	 -46.712 	 -75.1955 	 
C 	 -30.5865 	 -46.479 	 -78.1058 	 
H 	 -30.7769 	 -46.7542 	 -79.0807 	 
H 	 -29.7124 	 -46.9829 	 -77.8535 	 
C 	 -30.471 	 -44.979 	 -77.9825 	 
H 	 -30.1978 	 -44.6339 	 -76.9881 	 
H 	 -29.6497 	 -44.6689 	 -78.6623 	 
C 	 -31.755 	 -44.1526 	 -78.3266 	 
H 	 -32.5523 	 -44.333 	 -77.6744 	 
H 	 -31.6084 	 -43.1076 	 -78.5502 	 
H 	 -32.1382 	 -44.5143 	 -79.2592 	 
S 	 -33.022 	 -49.6251 	 -73.0854 	 
C 	 -33.1989 	 -49.0133 	 -71.4594 	 
C 	 -33.0629 	 -47.6967 	 -71.3376 	 
C 	 -32.6538 	 -47.0815 	 -72.5938 	 
C 	 -32.7192 	 -48.0013 	 -73.6575 	 
H 	 -33.2568 	 -47.3277 	 -70.3739 	 
C 	 -32.5876 	 -45.5924 	 -72.6702 	 
H 	 -31.6473 	 -45.4104 	 -73.215 	 
H 	 -32.5129 	 -45.3103 	 -71.5904 	 
C 	 -33.7604 	 -44.9627 	 -73.2556 	 
H 	 -34.7464 	 -45.4416 	 -72.9218 	 
H 	 -33.7321 	 -45.0712 	 -74.3582 	 
C 	 -33.8116 	 -43.4705 	 -72.903 	 
H 	 -32.9191 	 -42.9708 	 -73.2326 	 
H 	 -33.9454 	 -43.3324 	 -71.8277 	 
H 	 -34.6242 	 -42.8601 	 -73.3643 	 
H 	 -33.1839 	 -47.8261 	 -78.6366 	 
H 	 -33.7552 	 -49.4306 	 -70.6677 	 
