34

S 	 -128.766 	 27.5156 	 -15.0676 	 
C 	 -128.944 	 25.8664 	 -15.6068 	 
C 	 -129.83 	 25.127 	 -14.7492 	 
C 	 -130.474 	 26.0316 	 -13.8115 	 
C 	 -130.072 	 27.364 	 -13.8964 	 
H 	 -131.297 	 25.7431 	 -13.2405 	 
C 	 -130.173 	 23.6363 	 -14.8455 	 
H 	 -129.724 	 23.2786 	 -15.7298 	 
H 	 -131.263 	 23.6616 	 -15.122 	 
C 	 -129.841 	 22.6838 	 -13.6579 	 
H 	 -130.437 	 22.8035 	 -12.7611 	 
H 	 -130.185 	 21.725 	 -14.0434 	 
C 	 -128.333 	 22.6713 	 -13.2546 	 
H 	 -127.716 	 22.6323 	 -14.1237 	 
H 	 -128.244 	 23.569 	 -12.6439 	 
H 	 -128.082 	 21.9336 	 -12.5898 	 
S 	 -129.392 	 29.0918 	 -12.0692 	 
C 	 -130.561 	 30.2309 	 -11.4078 	 
C 	 -131.809 	 30.0906 	 -11.9402 	 
C 	 -131.768 	 29.0814 	 -12.9897 	 
C 	 -130.572 	 28.4506 	 -13.109 	 
H 	 -132.667 	 30.5836 	 -11.5797 	 
C 	 -133.001 	 28.7138 	 -13.6933 	 
H 	 -132.779 	 28.052 	 -14.5527 	 
H 	 -133.294 	 29.6203 	 -14.0983 	 
C 	 -134.123 	 28.0381 	 -12.9141 	 
H 	 -134.178 	 28.6528 	 -12.0356 	 
H 	 -133.781 	 27.0663 	 -12.5043 	 
C 	 -135.402 	 27.9225 	 -13.6864 	 
H 	 -136.043 	 27.2626 	 -13.0948 	 
H 	 -135.087 	 27.3919 	 -14.6361 	 
H 	 -135.932 	 28.8826 	 -13.8482 	 
H 	 -128.53 	 25.4845 	 -16.5321 	 
H 	 -130.398 	 30.8804 	 -10.5603 	 
