34

S 	 -63.546 	 -57.9226 	 -75.7824 	 
C 	 -65.3162 	 -57.863 	 -75.9066 	 
C 	 -65.6603 	 -57.4841 	 -77.1856 	 
C 	 -64.6223 	 -57.5872 	 -78.1342 	 
C 	 -63.3927 	 -57.7877 	 -77.51 	 
H 	 -64.7768 	 -57.5807 	 -79.1828 	 
C 	 -67.1106 	 -57.1598 	 -77.537 	 
H 	 -67.7307 	 -57.1295 	 -76.6776 	 
H 	 -67.4555 	 -57.9104 	 -78.2557 	 
C 	 -67.355 	 -55.7924 	 -78.1774 	 
H 	 -66.5995 	 -55.6864 	 -78.9578 	 
H 	 -68.3139 	 -55.7964 	 -78.652 	 
C 	 -67.2287 	 -54.6143 	 -77.2552 	 
H 	 -66.274 	 -54.836 	 -76.7049 	 
H 	 -67.1446 	 -53.7618 	 -77.9289 	 
H 	 -68.0982 	 -54.5129 	 -76.555 	 
S 	 -61.2081 	 -59.486 	 -77.4881 	 
C 	 -60.0833 	 -59.4757 	 -78.816 	 
C 	 -60.34 	 -58.4328 	 -79.7234 	 
C 	 -61.5304 	 -57.6574 	 -79.3881 	 
C 	 -62.1444 	 -58.1398 	 -78.1781 	 
H 	 -59.7212 	 -58.3981 	 -80.6023 	 
C 	 -62.0469 	 -56.5753 	 -80.3814 	 
H 	 -62.9206 	 -56.036 	 -79.9954 	 
H 	 -62.4138 	 -57.0308 	 -81.2948 	 
C 	 -60.8931 	 -55.562 	 -80.7501 	 
H 	 -61.3468 	 -54.8887 	 -81.4809 	 
H 	 -60.0908 	 -56.0636 	 -81.2576 	 
C 	 -60.2161 	 -54.6936 	 -79.6735 	 
H 	 -60.7255 	 -53.8601 	 -79.2008 	 
H 	 -59.2035 	 -54.3372 	 -79.8033 	 
H 	 -59.9931 	 -55.4117 	 -79.0113 	 
H 	 -65.929 	 -57.8499 	 -74.9459 	 
H 	 -59.3889 	 -60.297 	 -79.0726 	 
