34

S 	 -120.099 	 65.7078 	 -63.4007 	 
C 	 -120.197 	 64.0162 	 -63.6228 	 
C 	 -119.261 	 63.4182 	 -62.7731 	 
C 	 -118.462 	 64.3345 	 -62.0698 	 
C 	 -118.906 	 65.6833 	 -62.143 	 
H 	 -117.704 	 64.0112 	 -61.3751 	 
C 	 -119.146 	 61.9161 	 -62.5906 	 
H 	 -119.766 	 61.7306 	 -61.7324 	 
H 	 -118.208 	 61.3967 	 -62.4569 	 
C 	 -119.758 	 61.0669 	 -63.7626 	 
H 	 -120.823 	 60.9651 	 -63.5732 	 
H 	 -119.647 	 61.5662 	 -64.7786 	 
C 	 -119.192 	 59.6022 	 -63.8289 	 
H 	 -119.673 	 58.8907 	 -64.4743 	 
H 	 -118.125 	 59.7222 	 -64.1099 	 
H 	 -119.181 	 59.1127 	 -62.8678 	 
S 	 -116.834 	 67.4566 	 -61.4606 	 
C 	 -117.019 	 68.6259 	 -60.2185 	 
C 	 -118.438 	 68.737 	 -59.9927 	 
C 	 -119.27 	 67.6861 	 -60.6009 	 
C 	 -118.492 	 66.8607 	 -61.4116 	 
H 	 -118.799 	 69.4819 	 -59.3501 	 
C 	 -120.747 	 67.5187 	 -60.338 	 
H 	 -121.228 	 67.4187 	 -61.3124 	 
H 	 -121.275 	 68.395 	 -59.9243 	 
C 	 -121.105 	 66.2401 	 -59.5406 	 
H 	 -121.252 	 65.4232 	 -60.2747 	 
H 	 -122.039 	 66.229 	 -59.0852 	 
C 	 -120.073 	 65.8512 	 -58.4109 	 
H 	 -120.012 	 66.601 	 -57.6219 	 
H 	 -119.091 	 65.5324 	 -58.7763 	 
H 	 -120.376 	 64.926 	 -57.9574 	 
H 	 -120.926 	 63.4289 	 -64.1542 	 
H 	 -116.154 	 69.1824 	 -59.6983 	 
