34

S 	 34.2343 	 -0.81372 	 -119.634 	 
C 	 34.7701 	 -2.11529 	 -120.685 	 
C 	 35.337 	 -3.10601 	 -119.97 	 
C 	 35.1508 	 -2.83685 	 -118.526 	 
C 	 34.5886 	 -1.64639 	 -118.2 	 
H 	 35.5863 	 -3.504 	 -117.759 	 
C 	 36.0707 	 -4.3145 	 -120.44 	 
H 	 37.0506 	 -4.32688 	 -119.922 	 
H 	 36.4304 	 -4.25243 	 -121.463 	 
C 	 35.365 	 -5.66721 	 -120.329 	 
H 	 35.2123 	 -5.9219 	 -119.233 	 
H 	 34.4012 	 -5.62445 	 -120.831 	 
C 	 36.157 	 -6.85807 	 -120.947 	 
H 	 35.5866 	 -7.79841 	 -121.065 	 
H 	 36.6271 	 -6.59731 	 -121.856 	 
H 	 36.8955 	 -7.23917 	 -120.29 	 
S 	 34.2974 	 0.546172 	 -116.71 	 
C 	 34.0643 	 0.438496 	 -114.967 	 
C 	 33.9289 	 -0.887008 	 -114.551 	 
C 	 34.1055 	 -1.80275 	 -115.603 	 
C 	 34.2681 	 -1.18166 	 -116.829 	 
H 	 33.7988 	 -1.08768 	 -113.455 	 
C 	 33.96 	 -3.31684 	 -115.324 	 
H 	 33.6201 	 -3.83574 	 -116.224 	 
H 	 33.2098 	 -3.51367 	 -114.532 	 
C 	 35.2631 	 -3.92464 	 -114.805 	 
H 	 35.5161 	 -3.41393 	 -113.867 	 
H 	 36.0866 	 -3.75184 	 -115.542 	 
C 	 35.1601 	 -5.41547 	 -114.565 	 
H 	 35.514 	 -6.08404 	 -115.396 	 
H 	 34.242 	 -5.61904 	 -114.131 	 
H 	 35.8852 	 -5.61597 	 -113.762 	 
H 	 34.8752 	 -1.90907 	 -121.752 	 
H 	 33.9392 	 1.33554 	 -114.365 	 
