34

S 	 -68.7851 	 17.2705 	 -71.1236 	 
C 	 -67.3364 	 16.2326 	 -71.3303 	 
C 	 -67.1587 	 15.9787 	 -72.6803 	 
C 	 -68.0664 	 16.5996 	 -73.5453 	 
C 	 -68.9839 	 17.3708 	 -72.8458 	 
H 	 -68.0899 	 16.5176 	 -74.5862 	 
C 	 -66.0621 	 15.0917 	 -73.1889 	 
H 	 -66.4216 	 14.7637 	 -74.1523 	 
H 	 -66.1033 	 14.2357 	 -72.4934 	 
C 	 -64.6404 	 15.6855 	 -73.0172 	 
H 	 -64.5394 	 16.5074 	 -73.7471 	 
H 	 -64.5868 	 16.0439 	 -72.0507 	 
C 	 -63.4653 	 14.7977 	 -73.3643 	 
H 	 -62.6092 	 15.4357 	 -73.4226 	 
H 	 -63.0567 	 14.0068 	 -72.738 	 
H 	 -63.5949 	 14.4036 	 -74.3812 	 
S 	 -71.3373 	 17.2318 	 -74.1568 	 
C 	 -72.2867 	 18.6339 	 -74.3805 	 
C 	 -71.4647 	 19.773 	 -74.228 	 
C 	 -70.1667 	 19.5112 	 -73.6296 	 
C 	 -70.0079 	 18.161 	 -73.4163 	 
H 	 -71.8737 	 20.7283 	 -74.4949 	 
C 	 -69.2252 	 20.6309 	 -73.3574 	 
H 	 -68.5665 	 20.2302 	 -72.5852 	 
H 	 -69.7757 	 21.4948 	 -72.8095 	 
C 	 -68.3695 	 21.1041 	 -74.4841 	 
H 	 -67.6816 	 21.7897 	 -74.0876 	 
H 	 -69.0464 	 21.6636 	 -75.153 	 
C 	 -67.5997 	 19.9063 	 -75.1363 	 
H 	 -68.2512 	 19.2844 	 -75.7194 	 
H 	 -67.2782 	 19.2881 	 -74.2661 	 
H 	 -66.8059 	 20.239 	 -75.7744 	 
H 	 -66.7654 	 15.962 	 -70.5013 	 
H 	 -73.247 	 18.7868 	 -74.8279 	 
