34

S 	 41.4694 	 -32.829 	 -118.996 	 
C 	 41.6269 	 -31.3892 	 -119.943 	 
C 	 41.2854 	 -31.6823 	 -121.302 	 
C 	 40.7709 	 -32.9825 	 -121.463 	 
C 	 40.7784 	 -33.7679 	 -120.339 	 
H 	 40.3498 	 -33.412 	 -122.354 	 
C 	 41.2219 	 -30.6388 	 -122.382 	 
H 	 40.7347 	 -29.7875 	 -121.954 	 
H 	 40.4896 	 -31.0106 	 -123.127 	 
C 	 42.4439 	 -30.1742 	 -123.103 	 
H 	 42.1024 	 -29.4214 	 -123.792 	 
H 	 43.1505 	 -29.7106 	 -122.428 	 
C 	 43.1531 	 -31.2209 	 -123.867 	 
H 	 43.8229 	 -30.7515 	 -124.512 	 
H 	 43.7505 	 -31.814 	 -123.163 	 
H 	 42.5199 	 -31.8869 	 -124.478 	 
S 	 41.5274 	 -36.4043 	 -120.276 	 
C 	 40.2475 	 -37.5469 	 -119.894 	 
C 	 38.9892 	 -36.9839 	 -119.752 	 
C 	 38.9681 	 -35.5584 	 -119.908 	 
C 	 40.3053 	 -35.1011 	 -120.116 	 
H 	 38.1108 	 -37.5864 	 -119.52 	 
C 	 37.7507 	 -34.6847 	 -119.679 	 
H 	 38.1523 	 -33.7788 	 -119.14 	 
H 	 37.2247 	 -35.175 	 -118.897 	 
C 	 36.7085 	 -34.4749 	 -120.888 	 
H 	 36.6534 	 -35.483 	 -121.352 	 
H 	 37.0899 	 -33.8097 	 -121.709 	 
C 	 35.236 	 -34.0628 	 -120.722 	 
H 	 34.7746 	 -33.8311 	 -121.689 	 
H 	 35.2374 	 -33.1492 	 -120.047 	 
H 	 34.6647 	 -34.8354 	 -120.309 	 
H 	 41.9649 	 -30.475 	 -119.49 	 
H 	 40.3004 	 -38.643 	 -119.764 	 
