34

S 	 -57.2709 	 16.6148 	 -86.5785 	 
C 	 -58.8625 	 17.0264 	 -87.1527 	 
C 	 -59.1911 	 18.3535 	 -86.8913 	 
C 	 -58.0442 	 19.1196 	 -86.4416 	 
C 	 -56.9582 	 18.3129 	 -86.2198 	 
H 	 -58.0303 	 20.1615 	 -86.3215 	 
C 	 -60.4802 	 18.9777 	 -87.2642 	 
H 	 -60.8866 	 19.6895 	 -86.5146 	 
H 	 -61.2864 	 18.2842 	 -87.3825 	 
C 	 -60.3734 	 19.6499 	 -88.6131 	 
H 	 -59.6096 	 20.4485 	 -88.5811 	 
H 	 -60.0323 	 18.9698 	 -89.4085 	 
C 	 -61.7368 	 20.237 	 -89.0854 	 
H 	 -62.2117 	 20.9891 	 -88.3899 	 
H 	 -61.6182 	 20.6069 	 -90.1118 	 
H 	 -62.4695 	 19.4918 	 -89.215 	 
S 	 -55.0906 	 17.812 	 -84.3424 	 
C 	 -53.6366 	 18.7209 	 -84.1716 	 
C 	 -53.661 	 19.8028 	 -85.0483 	 
C 	 -54.8622 	 19.8061 	 -85.919 	 
C 	 -55.6993 	 18.7593 	 -85.6836 	 
H 	 -52.8293 	 20.4921 	 -85.0885 	 
C 	 -54.9767 	 20.7507 	 -87.0556 	 
H 	 -55.9608 	 20.7373 	 -87.4977 	 
H 	 -54.2596 	 20.392 	 -87.8239 	 
C 	 -54.573 	 22.2094 	 -86.7944 	 
H 	 -53.5026 	 22.3961 	 -86.7052 	 
H 	 -55.0305 	 22.6335 	 -85.8986 	 
C 	 -55.1346 	 23.0625 	 -88.0307 	 
H 	 -54.6612 	 22.9067 	 -89.0379 	 
H 	 -54.9648 	 24.1298 	 -87.8445 	 
H 	 -56.2134 	 22.8931 	 -88.2478 	 
H 	 -59.4756 	 16.2656 	 -87.4919 	 
H 	 -52.8173 	 18.6356 	 -83.4787 	 
