34

S 	 15.652 	 -12.2985 	 -122.659 	 
C 	 14.7055 	 -11.3999 	 -123.737 	 
C 	 14.2678 	 -10.1693 	 -123.236 	 
C 	 14.601 	 -10.0641 	 -121.873 	 
C 	 15.4637 	 -11.0343 	 -121.386 	 
H 	 14.3014 	 -9.22416 	 -121.261 	 
C 	 13.401 	 -9.16832 	 -123.981 	 
H 	 13.406 	 -9.3386 	 -125.104 	 
H 	 14.0182 	 -8.2797 	 -123.919 	 
C 	 11.9212 	 -8.92921 	 -123.499 	 
H 	 11.4086 	 -9.92272 	 -123.788 	 
H 	 11.9836 	 -8.84859 	 -122.431 	 
C 	 11.2464 	 -7.8217 	 -124.172 	 
H 	 11.6614 	 -6.88754 	 -123.838 	 
H 	 11.4213 	 -7.97123 	 -125.234 	 
H 	 10.2207 	 -8.0292 	 -123.947 	 
S 	 15.552 	 -12.8336 	 -119.326 	 
C 	 15.9589 	 -12.2414 	 -117.761 	 
C 	 16.4403 	 -10.9459 	 -117.741 	 
C 	 16.3942 	 -10.3767 	 -119.073 	 
C 	 15.8602 	 -11.2759 	 -119.998 	 
H 	 16.8856 	 -10.465 	 -116.883 	 
C 	 16.805 	 -8.96852 	 -119.401 	 
H 	 17.1275 	 -8.46192 	 -118.475 	 
H 	 15.8891 	 -8.41221 	 -119.7 	 
C 	 17.8703 	 -8.82446 	 -120.483 	 
H 	 17.8082 	 -7.76362 	 -120.693 	 
H 	 17.5283 	 -9.43918 	 -121.381 	 
C 	 19.3019 	 -9.23824 	 -120.004 	 
H 	 19.7193 	 -8.30151 	 -119.544 	 
H 	 19.979 	 -9.54431 	 -120.815 	 
H 	 19.0967 	 -9.9117 	 -119.178 	 
H 	 14.4668 	 -11.7865 	 -124.769 	 
H 	 16.0834 	 -12.8581 	 -116.89 	 
