34

S 	 -126.113 	 62.8292 	 -42.6816 	 
C 	 -125.056 	 62.931 	 -44.1608 	 
C 	 -125.337 	 63.9917 	 -44.9835 	 
C 	 -126.371 	 64.8398 	 -44.4521 	 
C 	 -126.803 	 64.4388 	 -43.2025 	 
H 	 -126.603 	 65.7736 	 -44.8774 	 
C 	 -124.585 	 64.2584 	 -46.2716 	 
H 	 -124.565 	 63.2884 	 -46.8018 	 
H 	 -123.533 	 64.5457 	 -46.0988 	 
C 	 -125.182 	 65.2591 	 -47.3249 	 
H 	 -124.667 	 65.2918 	 -48.2551 	 
H 	 -126.199 	 65.1099 	 -47.6084 	 
C 	 -124.967 	 66.7363 	 -46.977 	 
H 	 -123.943 	 67.0497 	 -47.0412 	 
H 	 -125.611 	 67.4109 	 -47.5811 	 
H 	 -125.307 	 66.9278 	 -45.9161 	 
S 	 -127.893 	 64.3456 	 -40.6271 	 
C 	 -128.59 	 65.859 	 -40.0817 	 
C 	 -128.915 	 66.7005 	 -41.0721 	 
C 	 -128.47 	 66.2278 	 -42.3442 	 
C 	 -127.75 	 65.079 	 -42.2951 	 
H 	 -129.377 	 67.5612 	 -40.8716 	 
C 	 -128.722 	 67.1857 	 -43.5413 	 
H 	 -129.785 	 67.5627 	 -43.5263 	 
H 	 -128.619 	 66.6526 	 -44.4702 	 
C 	 -127.761 	 68.3784 	 -43.6234 	 
H 	 -126.742 	 67.9285 	 -43.7881 	 
H 	 -127.838 	 68.8483 	 -42.6079 	 
C 	 -127.924 	 69.444 	 -44.7643 	 
H 	 -128.851 	 69.9514 	 -44.5216 	 
H 	 -128.041 	 68.9909 	 -45.7432 	 
H 	 -127.075 	 70.1328 	 -44.65 	 
H 	 -124.271 	 62.2256 	 -44.372 	 
H 	 -128.804 	 66.0839 	 -39.0228 	 
