34

S 	 -107.19 	 55.5868 	 -102.576 	 
C 	 -108.421 	 54.2735 	 -102.696 	 
C 	 -109.474 	 54.4468 	 -101.755 	 
C 	 -109.177 	 55.5557 	 -100.899 	 
C 	 -107.978 	 56.2431 	 -101.181 	 
H 	 -109.761 	 55.9736 	 -100.103 	 
C 	 -110.824 	 53.6902 	 -101.703 	 
H 	 -110.736 	 52.8684 	 -102.418 	 
H 	 -111.721 	 54.2183 	 -102.124 	 
C 	 -111.29 	 53.0449 	 -100.404 	 
H 	 -110.591 	 52.4075 	 -99.9507 	 
H 	 -111.52 	 53.8408 	 -99.7675 	 
C 	 -112.535 	 52.2407 	 -100.498 	 
H 	 -112.402 	 51.4923 	 -101.239 	 
H 	 -112.715 	 51.6657 	 -99.6731 	 
H 	 -113.423 	 52.7603 	 -100.756 	 
S 	 -106.689 	 57.1504 	 -99.0673 	 
C 	 -105.973 	 58.7585 	 -98.8963 	 
C 	 -106.282 	 59.4384 	 -100.07 	 
C 	 -107.09 	 58.7202 	 -101.004 	 
C 	 -107.404 	 57.4394 	 -100.6 	 
H 	 -105.921 	 60.4262 	 -100.093 	 
C 	 -107.324 	 59.3394 	 -102.37 	 
H 	 -108.066 	 58.7115 	 -102.928 	 
H 	 -106.311 	 59.3188 	 -102.827 	 
C 	 -107.791 	 60.8231 	 -102.317 	 
H 	 -107.825 	 61.3239 	 -103.259 	 
H 	 -107.113 	 61.3786 	 -101.719 	 
C 	 -109.164 	 61.057 	 -101.642 	 
H 	 -109.214 	 62.0202 	 -101.268 	 
H 	 -109.359 	 60.5679 	 -100.713 	 
H 	 -109.961 	 60.8594 	 -102.345 	 
H 	 -108.487 	 53.4452 	 -103.37 	 
H 	 -105.406 	 59.1937 	 -98.0148 	 
