34

S 	 -105.203 	 56.6056 	 -98.5428 	 
C 	 -105.85 	 55.7078 	 -97.1323 	 
C 	 -106.848 	 56.3686 	 -96.5037 	 
C 	 -107.196 	 57.5318 	 -97.247 	 
C 	 -106.54 	 57.742 	 -98.4213 	 
H 	 -108.015 	 58.2302 	 -97.0079 	 
C 	 -107.569 	 55.8844 	 -95.3002 	 
H 	 -107.347 	 56.531 	 -94.4397 	 
H 	 -107.104 	 54.9752 	 -95.0559 	 
C 	 -109.065 	 55.6354 	 -95.6055 	 
H 	 -109.489 	 56.5906 	 -95.849 	 
H 	 -109.257 	 54.9228 	 -96.5357 	 
C 	 -109.878 	 55.1005 	 -94.4084 	 
H 	 -109.522 	 54.1714 	 -94.0285 	 
H 	 -109.674 	 55.8604 	 -93.6267 	 
H 	 -110.906 	 55.0665 	 -94.626 	 
S 	 -106.501 	 58.1739 	 -101.088 	 
C 	 -106.974 	 59.6924 	 -101.794 	 
C 	 -107.402 	 60.5592 	 -100.833 	 
C 	 -107.471 	 59.9742 	 -99.5114 	 
C 	 -106.84 	 58.7148 	 -99.4429 	 
H 	 -107.719 	 61.5956 	 -101.065 	 
C 	 -108.074 	 60.8191 	 -98.4159 	 
H 	 -108.88 	 60.1859 	 -97.97 	 
H 	 -108.638 	 61.6201 	 -98.8348 	 
C 	 -107.193 	 61.3199 	 -97.279 	 
H 	 -106.393 	 61.9906 	 -97.7471 	 
H 	 -106.735 	 60.464 	 -96.8284 	 
C 	 -108.075 	 62.0236 	 -96.1874 	 
H 	 -108.582 	 62.8192 	 -96.6652 	 
H 	 -107.492 	 62.4495 	 -95.3767 	 
H 	 -108.787 	 61.3804 	 -95.6788 	 
H 	 -105.356 	 54.7694 	 -96.8684 	 
H 	 -106.826 	 59.9269 	 -102.82 	 
