34

S 	 -47.8783 	 15.0348 	 21.4034 	 
C 	 -49.0859 	 14.0068 	 20.6252 	 
C 	 -50.2246 	 13.7723 	 21.3563 	 
C 	 -50.1269 	 14.3908 	 22.6532 	 
C 	 -48.9325 	 15.1013 	 22.8137 	 
H 	 -50.8497 	 14.3214 	 23.3659 	 
C 	 -51.3886 	 12.8856 	 20.9947 	 
H 	 -51.4777 	 13.1853 	 19.9061 	 
H 	 -52.2309 	 13.235 	 21.5512 	 
C 	 -51.2279 	 11.392 	 21.211 	 
H 	 -52.1739 	 10.9502 	 20.9062 	 
H 	 -50.5188 	 10.9396 	 20.5585 	 
C 	 -50.9171 	 11.0586 	 22.633 	 
H 	 -49.9122 	 11.4784 	 22.8508 	 
H 	 -51.6332 	 11.4347 	 23.3796 	 
H 	 -50.8908 	 9.9622 	 22.874 	 
S 	 -49.4499 	 17.3329 	 24.2606 	 
C 	 -48.7568 	 17.5548 	 25.8136 	 
C 	 -47.7443 	 16.6218 	 25.9584 	 
C 	 -47.7351 	 15.6076 	 25.0174 	 
C 	 -48.6145 	 15.8356 	 24.0038 	 
H 	 -47.2384 	 16.7446 	 26.8572 	 
C 	 -46.7969 	 14.4177 	 25.1614 	 
H 	 -46.2071 	 14.5618 	 26.0795 	 
H 	 -46.2492 	 14.3837 	 24.2562 	 
C 	 -47.4049 	 13.0688 	 25.4888 	 
H 	 -46.6795 	 12.2818 	 25.3646 	 
H 	 -48.1653 	 12.7904 	 24.732 	 
C 	 -48.0042 	 12.9033 	 26.8215 	 
H 	 -48.5766 	 12.0045 	 26.7886 	 
H 	 -48.594 	 13.8488 	 26.9472 	 
H 	 -47.28 	 12.843 	 27.6043 	 
H 	 -49.0932 	 13.7227 	 19.5335 	 
H 	 -49.0693 	 18.3474 	 26.5608 	 
