34

S 	 38.3777 	 -33.0122 	 -116.952 	 
C 	 37.3832 	 -33.5368 	 -118.195 	 
C 	 37.7612 	 -34.7862 	 -118.615 	 
C 	 39.0095 	 -35.2122 	 -118.017 	 
C 	 39.4895 	 -34.4031 	 -116.994 	 
H 	 39.3482 	 -36.1501 	 -118.274 	 
C 	 36.981 	 -35.6412 	 -119.529 	 
H 	 35.97 	 -35.6308 	 -119.138 	 
H 	 37.3989 	 -36.6094 	 -119.473 	 
C 	 37.1046 	 -35.3198 	 -121.027 	 
H 	 36.3637 	 -35.9971 	 -121.489 	 
H 	 36.804 	 -34.3021 	 -121.13 	 
C 	 38.5202 	 -35.5884 	 -121.578 	 
H 	 38.4892 	 -36.5644 	 -122.151 	 
H 	 38.9091 	 -35.0596 	 -122.387 	 
H 	 39.405 	 -35.628 	 -120.842 	 
S 	 41.3271 	 -33.2326 	 -115.245 	 
C 	 42.2751 	 -34.296 	 -114.264 	 
C 	 42.4069 	 -35.5272 	 -114.816 	 
C 	 41.5314 	 -35.695 	 -115.95 	 
C 	 40.7276 	 -34.5518 	 -116.206 	 
H 	 43.1236 	 -36.2422 	 -114.486 	 
C 	 41.4417 	 -37.0427 	 -116.696 	 
H 	 40.32 	 -37.2351 	 -116.941 	 
H 	 41.6694 	 -37.8452 	 -116.013 	 
C 	 42.418 	 -37.079 	 -117.881 	 
H 	 42.5035 	 -38.1503 	 -118.134 	 
H 	 43.2848 	 -36.676 	 -117.535 	 
C 	 42.0177 	 -36.3156 	 -119.131 	 
H 	 42.8545 	 -36.3831 	 -119.859 	 
H 	 41.7887 	 -35.2443 	 -118.829 	 
H 	 41.089 	 -36.7431 	 -119.476 	 
H 	 36.4984 	 -32.9592 	 -118.446 	 
H 	 42.8358 	 -34.1205 	 -113.327 	 
