34

S 	 -135.742 	 64.2414 	 -59.14 	 
C 	 -135.053 	 65.0374 	 -60.4879 	 
C 	 -134.427 	 66.2135 	 -60.0559 	 
C 	 -134.057 	 66.2196 	 -58.6607 	 
C 	 -134.663 	 65.1427 	 -58.0182 	 
H 	 -133.488 	 67.0223 	 -58.1909 	 
C 	 -133.976 	 67.3518 	 -60.9697 	 
H 	 -133.618 	 68.1183 	 -60.3171 	 
H 	 -134.839 	 67.8663 	 -61.5549 	 
C 	 -132.933 	 66.895 	 -62.1216 	 
H 	 -133.447 	 66.0401 	 -62.5531 	 
H 	 -132.752 	 67.6302 	 -62.8659 	 
C 	 -131.554 	 66.534 	 -61.4797 	 
H 	 -131.011 	 67.3438 	 -60.9762 	 
H 	 -131.651 	 65.6909 	 -60.7765 	 
H 	 -131.058 	 66.2155 	 -62.3914 	 
S 	 -135.891 	 64.9487 	 -55.5911 	 
C 	 -134.985 	 64.5742 	 -54.2129 	 
C 	 -133.705 	 64.3943 	 -54.4575 	 
C 	 -133.378 	 64.4893 	 -55.8423 	 
C 	 -134.492 	 64.7109 	 -56.6166 	 
H 	 -132.964 	 64.2624 	 -53.6964 	 
C 	 -131.989 	 64.3188 	 -56.4311 	 
H 	 -132.082 	 64.0207 	 -57.4602 	 
H 	 -131.492 	 63.4001 	 -56.0645 	 
C 	 -131.108 	 65.5803 	 -56.3329 	 
H 	 -130.954 	 65.8337 	 -55.2648 	 
H 	 -131.576 	 66.4114 	 -56.8331 	 
C 	 -129.703 	 65.4337 	 -56.9693 	 
H 	 -129.208 	 64.5109 	 -56.5883 	 
H 	 -129.06 	 66.259 	 -56.8716 	 
H 	 -129.635 	 65.3741 	 -58.0057 	 
H 	 -135.216 	 64.7185 	 -61.5213 	 
H 	 -135.446 	 64.4026 	 -53.1844 	 
