34

S 	 30.9599 	 -29.4229 	 -107.322 	 
C 	 32.271 	 -29.7452 	 -106.203 	 
C 	 33.3838 	 -30.17 	 -106.852 	 
C 	 33.2111 	 -30.4246 	 -108.245 	 
C 	 31.9205 	 -30.1438 	 -108.647 	 
H 	 33.9323 	 -30.6572 	 -108.992 	 
C 	 34.7398 	 -30.3357 	 -106.23 	 
H 	 35.3597 	 -31.1161 	 -106.77 	 
H 	 34.5982 	 -30.927 	 -105.354 	 
C 	 35.5595 	 -28.9973 	 -106.089 	 
H 	 35.151 	 -28.2554 	 -105.4 	 
H 	 36.5769 	 -29.3252 	 -105.82 	 
C 	 35.8548 	 -28.2483 	 -107.358 	 
H 	 34.9363 	 -27.8331 	 -107.825 	 
H 	 36.5687 	 -27.5069 	 -107.319 	 
H 	 36.2698 	 -28.9153 	 -108.072 	 
S 	 31.1904 	 -28.5109 	 -110.711 	 
C 	 30.7438 	 -29.1857 	 -112.231 	 
C 	 30.7314 	 -30.5941 	 -112.113 	 
C 	 31.1513 	 -31.0833 	 -110.876 	 
C 	 31.5012 	 -30.0973 	 -110.022 	 
H 	 30.5047 	 -31.0865 	 -113.016 	 
C 	 31.0166 	 -32.5873 	 -110.438 	 
H 	 29.9887 	 -32.8667 	 -110.421 	 
H 	 31.4979 	 -32.5803 	 -109.443 	 
C 	 31.8205 	 -33.6008 	 -111.306 	 
H 	 32.8705 	 -33.2989 	 -111.208 	 
H 	 31.5453 	 -33.5661 	 -112.353 	 
C 	 31.6147 	 -34.9877 	 -110.794 	 
H 	 32.0336 	 -35.102 	 -109.79 	 
H 	 32.0999 	 -35.7324 	 -111.46 	 
H 	 30.526 	 -35.2311 	 -110.745 	 
H 	 32.343 	 -29.3317 	 -105.224 	 
H 	 30.52 	 -28.5961 	 -113.146 	 
