34

S 	 -101.102 	 -2.69785 	 -109.903 	 
C 	 -100.071 	 -3.84389 	 -110.763 	 
C 	 -100.203 	 -5.11012 	 -110.346 	 
C 	 -100.965 	 -5.18041 	 -109.093 	 
C 	 -101.392 	 -3.95214 	 -108.694 	 
H 	 -101.225 	 -6.05433 	 -108.487 	 
C 	 -99.8078 	 -6.32361 	 -111.097 	 
H 	 -98.8267 	 -6.20952 	 -111.232 	 
H 	 -100.104 	 -6.29693 	 -112.153 	 
C 	 -100.002 	 -7.71277 	 -110.443 	 
H 	 -101.108 	 -7.70551 	 -110.132 	 
H 	 -99.776 	 -8.4858 	 -111.124 	 
C 	 -99.1079 	 -7.9245 	 -109.247 	 
H 	 -99.0571 	 -7.08058 	 -108.53 	 
H 	 -99.6198 	 -8.7232 	 -108.713 	 
H 	 -98.0569 	 -8.24062 	 -109.488 	 
S 	 -103.911 	 -3.02355 	 -107.997 	 
C 	 -104.482 	 -3.21148 	 -106.308 	 
C 	 -103.531 	 -3.90847 	 -105.505 	 
C 	 -102.331 	 -4.24907 	 -106.241 	 
C 	 -102.402 	 -3.84605 	 -107.6 	 
H 	 -103.777 	 -4.07476 	 -104.533 	 
C 	 -101.171 	 -4.92913 	 -105.582 	 
H 	 -100.986 	 -4.48104 	 -104.586 	 
H 	 -100.162 	 -4.78316 	 -106.083 	 
C 	 -101.231 	 -6.4969 	 -105.398 	 
H 	 -101.542 	 -6.94221 	 -106.349 	 
H 	 -101.969 	 -6.62294 	 -104.604 	 
C 	 -99.9032 	 -7.04984 	 -104.783 	 
H 	 -99.0601 	 -7.0032 	 -105.479 	 
H 	 -100.195 	 -8.08223 	 -104.666 	 
H 	 -99.482 	 -6.62891 	 -103.868 	 
H 	 -99.5581 	 -3.64172 	 -111.674 	 
H 	 -105.437 	 -2.78921 	 -106.056 	 
