34

S 	 -106.082 	 51.8042 	 -81.5301 	 
C 	 -106.05 	 52.7084 	 -83.0595 	 
C 	 -107.266 	 52.6256 	 -83.7508 	 
C 	 -108.097 	 51.6353 	 -83.1571 	 
C 	 -107.634 	 51.0756 	 -81.9937 	 
H 	 -109.056 	 51.2005 	 -83.4579 	 
C 	 -107.579 	 53.2202 	 -85.1221 	 
H 	 -106.676 	 53.8112 	 -85.3229 	 
H 	 -108.414 	 53.9372 	 -85.0294 	 
C 	 -108.027 	 52.2075 	 -86.2312 	 
H 	 -107.213 	 51.4729 	 -86.2808 	 
H 	 -108.94 	 51.7219 	 -85.8815 	 
C 	 -108.463 	 52.9805 	 -87.4927 	 
H 	 -109.465 	 53.3778 	 -87.4013 	 
H 	 -107.731 	 53.7546 	 -87.6922 	 
H 	 -108.316 	 52.2788 	 -88.2987 	 
S 	 -109.978 	 50.3157 	 -80.8261 	 
C 	 -109.954 	 48.8307 	 -79.8782 	 
C 	 -108.727 	 48.2578 	 -79.6812 	 
C 	 -107.791 	 48.9418 	 -80.459 	 
C 	 -108.295 	 50.0737 	 -81.1219 	 
H 	 -108.656 	 47.3271 	 -79.0885 	 
C 	 -106.35 	 48.4614 	 -80.5902 	 
H 	 -106.041 	 47.9224 	 -79.6868 	 
H 	 -105.688 	 49.3042 	 -80.6217 	 
C 	 -106.125 	 47.7398 	 -81.8457 	 
H 	 -105.07 	 47.6552 	 -82.0612 	 
H 	 -106.472 	 48.3083 	 -82.6681 	 
C 	 -106.638 	 46.2277 	 -81.8407 	 
H 	 -107.738 	 46.3093 	 -81.8556 	 
H 	 -106.33 	 45.7666 	 -80.913 	 
H 	 -106.238 	 45.6188 	 -82.6967 	 
H 	 -105.314 	 53.4312 	 -83.3323 	 
H 	 -110.959 	 48.4565 	 -79.4593 	 
