34

S 	 -119.785 	 21.2708 	 -24.5102 	 
C 	 -118.549 	 20.1582 	 -24.9085 	 
C 	 -117.325 	 20.8376 	 -25.0211 	 
C 	 -117.409 	 22.2498 	 -24.6963 	 
C 	 -118.722 	 22.6711 	 -24.5425 	 
H 	 -116.564 	 22.9139 	 -24.6741 	 
C 	 -115.975 	 20.1046 	 -25.2815 	 
H 	 -116.023 	 19.8917 	 -26.3779 	 
H 	 -115.954 	 19.2102 	 -24.7457 	 
C 	 -114.636 	 20.9332 	 -25.2042 	 
H 	 -114.622 	 21.5988 	 -26.1108 	 
H 	 -114.653 	 21.5584 	 -24.2424 	 
C 	 -113.398 	 20.0825 	 -25.2128 	 
H 	 -113.308 	 19.4356 	 -26.1157 	 
H 	 -112.482 	 20.6428 	 -24.9947 	 
H 	 -113.462 	 19.2529 	 -24.5001 	 
S 	 -119.456 	 24.1297 	 -22.3488 	 
C 	 -119.946 	 25.8164 	 -22.6203 	 
C 	 -119.849 	 26.1926 	 -23.9794 	 
C 	 -119.575 	 25.1297 	 -24.894 	 
C 	 -119.27 	 23.9903 	 -24.1362 	 
H 	 -120.084 	 27.2418 	 -24.2652 	 
C 	 -119.585 	 25.3399 	 -26.4024 	 
H 	 -120.573 	 25.5083 	 -26.6647 	 
H 	 -119.336 	 24.4042 	 -26.8245 	 
C 	 -118.761 	 26.5673 	 -26.9746 	 
H 	 -117.883 	 26.5997 	 -26.4098 	 
H 	 -119.358 	 27.4568 	 -26.8367 	 
C 	 -118.395 	 26.4546 	 -28.5487 	 
H 	 -117.958 	 25.4622 	 -28.7029 	 
H 	 -117.706 	 27.2164 	 -28.9632 	 
H 	 -119.236 	 26.5474 	 -29.192 	 
H 	 -118.655 	 19.0849 	 -25.0923 	 
H 	 -120.24 	 26.5168 	 -21.8118 	 
