34

S 	 18.3014 	 -7.0044 	 -116.271 	 
C 	 18.8178 	 -7.18909 	 -114.638 	 
C 	 17.8087 	 -6.76272 	 -113.77 	 
C 	 16.5838 	 -6.40054 	 -114.422 	 
C 	 16.7134 	 -6.38055 	 -115.792 	 
H 	 15.7016 	 -5.98352 	 -113.953 	 
C 	 17.8558 	 -6.92935 	 -112.264 	 
H 	 18.4024 	 -7.79681 	 -111.927 	 
H 	 16.9343 	 -7.27591 	 -112.009 	 
C 	 18.0835 	 -5.66084 	 -111.426 	 
H 	 17.3167 	 -4.86232 	 -111.643 	 
H 	 17.7952 	 -5.84838 	 -110.36 	 
C 	 19.4996 	 -4.98625 	 -111.42 	 
H 	 19.5664 	 -4.02561 	 -111.025 	 
H 	 20.3125 	 -5.66706 	 -111.071 	 
H 	 19.8329 	 -4.87344 	 -112.486 	 
S 	 15.0796 	 -7.16028 	 -117.845 	 
C 	 14.0465 	 -6.02808 	 -118.649 	 
C 	 14.0489 	 -4.83638 	 -118.024 	 
C 	 14.981 	 -4.71274 	 -116.963 	 
C 	 15.7045 	 -5.93548 	 -116.761 	 
H 	 13.2961 	 -4.07673 	 -118.372 	 
C 	 15.2499 	 -3.42331 	 -116.228 	 
H 	 15.7938 	 -2.8394 	 -116.928 	 
H 	 15.9754 	 -3.62088 	 -115.495 	 
C 	 14.0305 	 -2.57086 	 -115.665 	 
H 	 13.335 	 -2.40734 	 -116.499 	 
H 	 14.4293 	 -1.56988 	 -115.309 	 
C 	 13.2216 	 -3.15314 	 -114.442 	 
H 	 13.7708 	 -2.84292 	 -113.597 	 
H 	 13.1226 	 -4.21118 	 -114.442 	 
H 	 12.1899 	 -2.78273 	 -114.452 	 
H 	 19.7984 	 -7.4543 	 -114.294 	 
H 	 13.2969 	 -6.35819 	 -119.458 	 
