34

S 	 -24.5748 	 -33.1738 	 -95.1926 	 
C 	 -24.1168 	 -34.4798 	 -96.2343 	 
C 	 -23.8213 	 -34.0012 	 -97.5115 	 
C 	 -23.9568 	 -32.6145 	 -97.6128 	 
C 	 -24.2385 	 -32.0018 	 -96.4193 	 
H 	 -24.0313 	 -32.0113 	 -98.5261 	 
C 	 -23.57 	 -34.8191 	 -98.7914 	 
H 	 -22.8812 	 -34.2 	 -99.3192 	 
H 	 -24.4349 	 -34.7919 	 -99.4862 	 
C 	 -22.9647 	 -36.2344 	 -98.575 	 
H 	 -21.9454 	 -36.3283 	 -98.0924 	 
H 	 -23.7445 	 -36.6223 	 -97.9505 	 
C 	 -23.0706 	 -37.1134 	 -99.8308 	 
H 	 -22.9289 	 -36.541 	 -100.776 	 
H 	 -22.3952 	 -37.9383 	 -99.969 	 
H 	 -24.0383 	 -37.6121 	 -100.016 	 
S 	 -25.2059 	 -29.758 	 -97.5721 	 
C 	 -24.9562 	 -28.2365 	 -96.763 	 
C 	 -24.291 	 -28.403 	 -95.5922 	 
C 	 -23.942 	 -29.7326 	 -95.2883 	 
C 	 -24.3456 	 -30.565 	 -96.2805 	 
H 	 -23.9663 	 -27.5265 	 -95.022 	 
C 	 -23.1311 	 -30.109 	 -94.045 	 
H 	 -23.6785 	 -30.8461 	 -93.4958 	 
H 	 -23.0793 	 -29.2142 	 -93.3859 	 
C 	 -21.7392 	 -30.7261 	 -94.3882 	 
H 	 -21.264 	 -30.0335 	 -95.0634 	 
H 	 -21.8768 	 -31.63 	 -94.9795 	 
C 	 -20.8974 	 -30.8169 	 -93.1031 	 
H 	 -19.9426 	 -31.2918 	 -93.3552 	 
H 	 -21.4262 	 -31.3605 	 -92.3157 	 
H 	 -20.6576 	 -29.8999 	 -92.6733 	 
H 	 -23.9704 	 -35.523 	 -95.9148 	 
H 	 -25.2896 	 -27.2712 	 -97.0821 	 
