34

S 	 -136.877 	 12.6038 	 -2.75562 	 
C 	 -135.185 	 12.6076 	 -2.383 	 
C 	 -134.735 	 11.3123 	 -2.14469 	 
C 	 -135.752 	 10.3047 	 -2.31128 	 
C 	 -136.955 	 10.8296 	 -2.73365 	 
H 	 -135.54 	 9.26608 	 -2.10187 	 
C 	 -133.31 	 10.9529 	 -1.7923 	 
H 	 -132.646 	 11.7503 	 -2.25599 	 
H 	 -132.995 	 10.0258 	 -2.31249 	 
C 	 -133.106 	 10.8494 	 -0.259447 	 
H 	 -133.529 	 11.6401 	 0.348508 	 
H 	 -133.547 	 9.86857 	 0.139209 	 
C 	 -131.582 	 10.7717 	 -0.00554521 	 
H 	 -131.064 	 11.7417 	 -0.211177 	 
H 	 -131.327 	 10.6295 	 1.03489 	 
H 	 -131.002 	 10.0859 	 -0.6298 	 
S 	 -139.619 	 11.3793 	 -3.3435 	 
C 	 -140.686 	 10.0096 	 -3.65175 	 
C 	 -139.99 	 8.82912 	 -3.53721 	 
C 	 -138.613 	 8.89812 	 -3.26582 	 
C 	 -138.209 	 10.2197 	 -3.15887 	 
H 	 -140.609 	 7.93759 	 -3.51411 	 
C 	 -137.714 	 7.63174 	 -3.08411 	 
H 	 -136.706 	 7.89693 	 -3.5268 	 
H 	 -138.129 	 6.76916 	 -3.58287 	 
C 	 -137.396 	 7.29229 	 -1.53972 	 
H 	 -138.383 	 7.13175 	 -1.25287 	 
H 	 -136.956 	 8.15621 	 -1.11374 	 
C 	 -136.609 	 6.03893 	 -1.30759 	 
H 	 -135.736 	 5.98148 	 -1.98135 	 
H 	 -137.128 	 5.17375 	 -1.56694 	 
H 	 -136.454 	 5.88723 	 -0.194212 	 
H 	 -134.564 	 13.488 	 -2.23517 	 
H 	 -141.746 	 10.1062 	 -3.68859 	 
