34

S 	 -136.818 	 7.93698 	 -9.4001 	 
C 	 -137.351 	 9.60767 	 -9.27875 	 
C 	 -137.687 	 9.94984 	 -7.98838 	 
C 	 -137.216 	 8.99144 	 -7.06254 	 
C 	 -136.686 	 7.81426 	 -7.64927 	 
H 	 -137.401 	 9.02851 	 -6.03948 	 
C 	 -138.37 	 11.2652 	 -7.55819 	 
H 	 -138.544 	 11.8343 	 -8.46209 	 
H 	 -137.737 	 11.867 	 -6.92493 	 
C 	 -139.762 	 11.0194 	 -6.91103 	 
H 	 -140.407 	 10.7142 	 -7.72141 	 
H 	 -139.637 	 10.2688 	 -6.19028 	 
C 	 -140.26 	 12.3266 	 -6.29644 	 
H 	 -141.334 	 12.2441 	 -5.91454 	 
H 	 -139.655 	 12.5949 	 -5.48089 	 
H 	 -140.011 	 13.1172 	 -7.01176 	 
S 	 -137.224 	 5.21957 	 -6.96623 	 
C 	 -136.259 	 4.38708 	 -5.75947 	 
C 	 -135.114 	 5.08566 	 -5.59211 	 
C 	 -135.022 	 6.35158 	 -6.20955 	 
C 	 -136.182 	 6.61888 	 -6.94025 	 
H 	 -134.305 	 4.6666 	 -5.04865 	 
C 	 -133.783 	 7.21053 	 -6.24171 	 
H 	 -133.077 	 6.87105 	 -5.52115 	 
H 	 -134.128 	 8.19399 	 -6.00408 	 
C 	 -133.236 	 7.28125 	 -7.67468 	 
H 	 -134.05 	 7.58038 	 -8.4611 	 
H 	 -132.999 	 6.27333 	 -8.10431 	 
C 	 -131.95 	 8.12056 	 -7.82345 	 
H 	 -132.129 	 9.06464 	 -7.37275 	 
H 	 -131.659 	 8.29668 	 -8.89746 	 
H 	 -131.105 	 7.70959 	 -7.29222 	 
H 	 -137.588 	 10.1539 	 -10.1173 	 
H 	 -136.494 	 3.38782 	 -5.45138 	 
