34

S 	 -106.716 	 7.83941 	 -124.224 	 
C 	 -107.764 	 6.49404 	 -123.918 	 
C 	 -107.756 	 6.06256 	 -122.624 	 
C 	 -106.917 	 6.93778 	 -121.884 	 
C 	 -106.152 	 7.86415 	 -122.579 	 
H 	 -106.79 	 6.78773 	 -120.857 	 
C 	 -108.696 	 5.0661 	 -122.014 	 
H 	 -108.109 	 4.24726 	 -121.587 	 
H 	 -109.196 	 4.4722 	 -122.81 	 
C 	 -109.81 	 5.59279 	 -121.109 	 
H 	 -109.417 	 6.08429 	 -120.202 	 
H 	 -110.343 	 6.35419 	 -121.687 	 
C 	 -110.668 	 4.44839 	 -120.679 	 
H 	 -111.28 	 4.72992 	 -119.793 	 
H 	 -111.336 	 4.33751 	 -121.548 	 
H 	 -110.156 	 3.53997 	 -120.543 	 
S 	 -105.032 	 10.2736 	 -123.18 	 
C 	 -103.875 	 10.9652 	 -122.043 	 
C 	 -103.614 	 10.1648 	 -120.92 	 
C 	 -104.292 	 8.9332 	 -121.053 	 
C 	 -105.165 	 8.8496 	 -122.139 	 
H 	 -102.98 	 10.4877 	 -120.164 	 
C 	 -104.052 	 7.81767 	 -119.969 	 
H 	 -103.002 	 7.48938 	 -120.166 	 
H 	 -104.575 	 6.96433 	 -120.185 	 
C 	 -104.317 	 8.12569 	 -118.478 	 
H 	 -103.781 	 9.10824 	 -118.299 	 
H 	 -103.804 	 7.46858 	 -117.771 	 
C 	 -105.733 	 8.42608 	 -118.163 	 
H 	 -106.263 	 7.48328 	 -118.045 	 
H 	 -106.161 	 8.91957 	 -119.015 	 
H 	 -105.882 	 9.02164 	 -117.257 	 
H 	 -108.326 	 6.03576 	 -124.692 	 
H 	 -103.429 	 11.9496 	 -122.05 	 
