34

S 	 -92.4525 	 -41.8836 	 -60.8551 	 
C 	 -91.7837 	 -43.2279 	 -59.9471 	 
C 	 -92.5906 	 -43.5464 	 -58.8797 	 
C 	 -93.5726 	 -42.531 	 -58.6095 	 
C 	 -93.5 	 -41.493 	 -59.481 	 
H 	 -94.2797 	 -42.3781 	 -57.7844 	 
C 	 -92.3594 	 -44.7024 	 -57.8862 	 
H 	 -91.7191 	 -44.4201 	 -57.0543 	 
H 	 -91.6796 	 -45.3635 	 -58.4367 	 
C 	 -93.465 	 -45.5176 	 -57.3493 	 
H 	 -94.2228 	 -44.8753 	 -56.9315 	 
H 	 -94.0177 	 -46.077 	 -58.155 	 
C 	 -93.0357 	 -46.5474 	 -56.2596 	 
H 	 -93.9731 	 -47.098 	 -56.1941 	 
H 	 -92.2682 	 -47.2262 	 -56.6126 	 
H 	 -92.6585 	 -46.1494 	 -55.4018 	 
S 	 -93.8124 	 -39.1116 	 -58.3977 	 
C 	 -95.2615 	 -38.2539 	 -58.7017 	 
C 	 -96.1171 	 -38.8115 	 -59.5618 	 
C 	 -95.5904 	 -40.055 	 -59.969 	 
C 	 -94.3567 	 -40.3617 	 -59.4002 	 
H 	 -97.0542 	 -38.3979 	 -59.8773 	 
C 	 -96.2762 	 -40.8376 	 -61.0368 	 
H 	 -95.5507 	 -41.4148 	 -61.412 	 
H 	 -96.4631 	 -40.0772 	 -61.7951 	 
C 	 -97.6333 	 -41.5541 	 -60.6905 	 
H 	 -98.0632 	 -42.2313 	 -61.4665 	 
H 	 -98.4119 	 -40.7945 	 -60.4174 	 
C 	 -97.4286 	 -42.4631 	 -59.4515 	 
H 	 -96.6379 	 -43.2229 	 -59.5361 	 
H 	 -98.3656 	 -43.0002 	 -59.1935 	 
H 	 -97.1544 	 -41.7842 	 -58.6696 	 
H 	 -90.9322 	 -43.8808 	 -60.2347 	 
H 	 -95.3888 	 -37.2658 	 -58.2213 	 
