34

S 	 45.5629 	 -14.4733 	 -107.323 	 
C 	 46.0239 	 -14.9784 	 -108.959 	 
C 	 45.058 	 -14.577 	 -109.865 	 
C 	 44.0955 	 -13.7851 	 -109.22 	 
C 	 44.285 	 -13.4513 	 -107.933 	 
H 	 43.268 	 -13.3124 	 -109.789 	 
C 	 45.0704 	 -14.7865 	 -111.353 	 
H 	 44.1537 	 -15.3019 	 -111.582 	 
H 	 45.8746 	 -15.4774 	 -111.707 	 
C 	 45.297 	 -13.5539 	 -112.367 	 
H 	 44.8848 	 -12.5665 	 -112.158 	 
H 	 46.3734 	 -13.3529 	 -112.561 	 
C 	 44.7613 	 -14.0059 	 -113.803 	 
H 	 44.7287 	 -13.1445 	 -114.452 	 
H 	 45.4912 	 -14.5974 	 -114.411 	 
H 	 43.8005 	 -14.5129 	 -113.783 	 
S 	 41.996 	 -13.3381 	 -106.32 	 
C 	 41.503 	 -11.7608 	 -105.596 	 
C 	 42.5247 	 -10.8909 	 -105.789 	 
C 	 43.6783 	 -11.356 	 -106.556 	 
C 	 43.4815 	 -12.6425 	 -107.026 	 
H 	 42.4203 	 -9.85089 	 -105.373 	 
C 	 44.9108 	 -10.527 	 -106.871 	 
H 	 45.4139 	 -11.1302 	 -107.623 	 
H 	 45.5388 	 -10.4892 	 -105.969 	 
C 	 44.7137 	 -9.10635 	 -107.429 	 
H 	 45.7147 	 -8.66364 	 -107.517 	 
H 	 44.1628 	 -8.5201 	 -106.719 	 
C 	 43.9452 	 -9.07217 	 -108.74 	 
H 	 44.0294 	 -8.09466 	 -109.096 	 
H 	 42.8819 	 -9.11849 	 -108.44 	 
H 	 44.2804 	 -9.76215 	 -109.532 	 
H 	 46.9095 	 -15.5959 	 -109.179 	 
H 	 40.6474 	 -11.3896 	 -105.047 	 
