34

S 	 42.7313 	 -13.1863 	 -121.538 	 
C 	 41.1703 	 -12.7649 	 -120.937 	 
C 	 40.1725 	 -13.227 	 -121.804 	 
C 	 40.7509 	 -13.9855 	 -122.923 	 
C 	 42.1385 	 -13.9873 	 -122.938 	 
H 	 40.0807 	 -14.5247 	 -123.608 	 
C 	 38.681 	 -13.1107 	 -121.54 	 
H 	 38.5107 	 -13.1564 	 -120.451 	 
H 	 38.2078 	 -13.9634 	 -121.898 	 
C 	 37.9142 	 -11.986 	 -122.169 	 
H 	 38.0643 	 -11.9072 	 -123.244 	 
H 	 36.8996 	 -12.3271 	 -122.224 	 
C 	 37.9427 	 -10.6113 	 -121.415 	 
H 	 38.9385 	 -10.196 	 -121.263 	 
H 	 37.2619 	 -9.86553 	 -121.965 	 
H 	 37.6601 	 -10.6759 	 -120.391 	 
S 	 43.4441 	 -16.3368 	 -123.412 	 
C 	 44.2091 	 -16.6321 	 -124.964 	 
C 	 44.1388 	 -15.5073 	 -125.831 	 
C 	 43.4392 	 -14.3521 	 -125.205 	 
C 	 43.0003 	 -14.6779 	 -123.9 	 
H 	 44.6124 	 -15.5341 	 -126.753 	 
C 	 43.0353 	 -13.0916 	 -126 	 
H 	 43.8811 	 -12.9491 	 -126.67 	 
H 	 43.0138 	 -12.2635 	 -125.348 	 
C 	 41.6461 	 -13.1048 	 -126.697 	 
H 	 40.9422 	 -13.1631 	 -125.982 	 
H 	 41.7285 	 -13.928 	 -127.406 	 
C 	 41.4605 	 -11.8128 	 -127.551 	 
H 	 41.3412 	 -11.0391 	 -126.881 	 
H 	 40.4442 	 -11.9317 	 -127.973 	 
H 	 42.2102 	 -11.6482 	 -128.292 	 
H 	 41.0122 	 -12.3272 	 -119.965 	 
H 	 44.7255 	 -17.5583 	 -125.14 	 
