34

S 	 44.4428 	 -8.16948 	 -105.726 	 
C 	 44.8162 	 -6.66002 	 -106.559 	 
C 	 43.9503 	 -6.31617 	 -107.53 	 
C 	 42.9033 	 -7.28832 	 -107.565 	 
C 	 42.8764 	 -8.23317 	 -106.574 	 
H 	 42.1624 	 -7.37512 	 -108.372 	 
C 	 44.0783 	 -5.14836 	 -108.543 	 
H 	 44.4311 	 -5.61695 	 -109.481 	 
H 	 44.673 	 -4.39287 	 -108.223 	 
C 	 42.6309 	 -4.6361 	 -108.938 	 
H 	 42.1859 	 -5.28368 	 -109.624 	 
H 	 41.9873 	 -4.81823 	 -108.11 	 
C 	 42.6111 	 -3.18852 	 -109.445 	 
H 	 42.9681 	 -3.31855 	 -110.431 	 
H 	 41.6502 	 -2.8814 	 -109.728 	 
H 	 43.1128 	 -2.50101 	 -108.818 	 
S 	 42.4445 	 -10.8716 	 -106.6 	 
C 	 40.8234 	 -11.5451 	 -106.651 	 
C 	 39.8338 	 -10.5707 	 -106.798 	 
C 	 40.419 	 -9.24691 	 -106.652 	 
C 	 41.7953 	 -9.25734 	 -106.513 	 
H 	 38.8085 	 -10.8606 	 -106.942 	 
C 	 39.5997 	 -7.95289 	 -106.781 	 
H 	 40.2447 	 -7.09478 	 -106.922 	 
H 	 39.0205 	 -7.91749 	 -105.9 	 
C 	 38.6255 	 -7.84641 	 -107.974 	 
H 	 37.9899 	 -6.88593 	 -107.905 	 
H 	 37.8456 	 -8.56642 	 -107.869 	 
C 	 39.1979 	 -7.91608 	 -109.442 	 
H 	 40.0445 	 -7.23918 	 -109.633 	 
H 	 38.4782 	 -7.72857 	 -110.203 	 
H 	 39.6207 	 -8.87351 	 -109.604 	 
H 	 45.7767 	 -6.22659 	 -106.429 	 
H 	 40.5433 	 -12.5371 	 -106.894 	 
