34

S 	 -76.1407 	 -4.53668 	 5.81794 	 
C 	 -74.4998 	 -4.10697 	 5.31614 	 
C 	 -73.8717 	 -5.2246 	 4.79821 	 
C 	 -74.6528 	 -6.35648 	 4.69973 	 
C 	 -75.946 	 -6.21762 	 5.27685 	 
H 	 -74.3249 	 -7.25481 	 4.22266 	 
C 	 -72.5299 	 -5.22304 	 4.01708 	 
H 	 -72.6947 	 -4.9208 	 3.01161 	 
H 	 -72.0604 	 -6.18382 	 3.93526 	 
C 	 -71.4558 	 -4.26484 	 4.56199 	 
H 	 -70.6124 	 -4.25592 	 3.90963 	 
H 	 -71.8954 	 -3.26554 	 4.74806 	 
C 	 -71.0505 	 -4.74643 	 5.96657 	 
H 	 -71.8469 	 -4.96572 	 6.65043 	 
H 	 -70.5118 	 -5.68525 	 5.87572 	 
H 	 -70.3992 	 -4.0136 	 6.42481 	 
S 	 -78.6989 	 -6.81254 	 4.97831 	 
C 	 -79.2422 	 -8.50051 	 5.18474 	 
C 	 -78.2424 	 -9.36514 	 5.38408 	 
C 	 -77.0215 	 -8.60578 	 5.58086 	 
C 	 -77.0298 	 -7.23497 	 5.29888 	 
H 	 -78.5139 	 -10.4099 	 5.55146 	 
C 	 -75.8228 	 -9.39587 	 5.96353 	 
H 	 -75.9658 	 -9.92049 	 6.96166 	 
H 	 -74.9694 	 -8.78246 	 6.14191 	 
C 	 -75.5153 	 -10.4692 	 4.97145 	 
H 	 -75.8878 	 -10.287 	 4.02415 	 
H 	 -76.0171 	 -11.4587 	 5.25424 	 
C 	 -73.9193 	 -10.7944 	 4.90625 	 
H 	 -73.5811 	 -10.8386 	 5.90349 	 
H 	 -73.4362 	 -10.0513 	 4.2676 	 
H 	 -73.6814 	 -11.7084 	 4.39164 	 
H 	 -74.0736 	 -3.11032 	 5.48228 	 
H 	 -80.2912 	 -8.753 	 5.19465 	 
