34

S 	 -105.954 	 54.8094 	 -12.502 	 
C 	 -105.077 	 55.4067 	 -13.9019 	 
C 	 -104.689 	 54.3976 	 -14.7317 	 
C 	 -104.996 	 53.1446 	 -14.2063 	 
C 	 -105.852 	 53.1445 	 -13.112 	 
H 	 -104.814 	 52.1203 	 -14.6599 	 
C 	 -104.097 	 54.6094 	 -16.104 	 
H 	 -103.965 	 55.685 	 -16.3308 	 
H 	 -104.948 	 54.2297 	 -16.7597 	 
C 	 -102.669 	 54.0712 	 -16.2548 	 
H 	 -101.926 	 54.6101 	 -15.6977 	 
H 	 -102.649 	 53.1148 	 -15.79 	 
C 	 -102.211 	 53.9928 	 -17.7321 	 
H 	 -102.367 	 54.9479 	 -18.285 	 
H 	 -101.177 	 53.6029 	 -17.7221 	 
H 	 -102.82 	 53.2306 	 -18.2034 	 
S 	 -108.431 	 52.5681 	 -12.3204 	 
C 	 -108.98 	 50.9288 	 -11.9603 	 
C 	 -107.875 	 50.1172 	 -12.0067 	 
C 	 -106.642 	 50.716 	 -12.4719 	 
C 	 -106.782 	 52.1057 	 -12.6018 	 
H 	 -108.007 	 49.0673 	 -11.699 	 
C 	 -105.328 	 49.9522 	 -12.663 	 
H 	 -104.96 	 49.9295 	 -13.7045 	 
H 	 -105.64 	 48.9157 	 -12.5222 	 
C 	 -104.233 	 50.3443 	 -11.6353 	 
H 	 -104.506 	 50.0977 	 -10.6549 	 
H 	 -104.08 	 51.4553 	 -11.6733 	 
C 	 -102.884 	 49.6629 	 -12.0216 	 
H 	 -102.093 	 50.1615 	 -11.5819 	 
H 	 -102.718 	 49.6314 	 -13.1549 	 
H 	 -102.885 	 48.5932 	 -11.6953 	 
H 	 -105.08 	 56.443 	 -14.0895 	 
H 	 -110.031 	 50.6443 	 -11.7074 	 
