34

S 	 36.6493 	 -15.1892 	 -122.612 	 
C 	 36.3171 	 -14.5526 	 -121.005 	 
C 	 37.0538 	 -15.2614 	 -120.123 	 
C 	 37.9358 	 -16.2364 	 -120.634 	 
C 	 37.9868 	 -16.1395 	 -122.032 	 
H 	 38.527 	 -16.8804 	 -119.934 	 
C 	 37.0283 	 -15.0309 	 -118.623 	 
H 	 37.8567 	 -15.6725 	 -118.167 	 
H 	 36.1525 	 -15.3974 	 -118.125 	 
C 	 37.2606 	 -13.6026 	 -118.154 	 
H 	 36.4985 	 -12.8851 	 -118.585 	 
H 	 37.1676 	 -13.4988 	 -117.074 	 
C 	 38.557 	 -12.9587 	 -118.471 	 
H 	 38.7229 	 -13.0525 	 -119.553 	 
H 	 38.435 	 -11.8919 	 -118.163 	 
H 	 39.45 	 -13.4542 	 -118.068 	 
S 	 38.0111 	 -17.2323 	 -124.541 	 
C 	 39.2302 	 -18.3201 	 -125.056 	 
C 	 40.3237 	 -18.1409 	 -124.19 	 
C 	 40.016 	 -17.4049 	 -122.971 	 
C 	 38.6863 	 -16.9644 	 -123.016 	 
H 	 41.329 	 -18.5175 	 -124.399 	 
C 	 40.9296 	 -17.0272 	 -121.817 	 
H 	 40.7771 	 -17.5987 	 -120.918 	 
H 	 40.7373 	 -15.9487 	 -121.64 	 
C 	 42.4165 	 -17.2433 	 -122.249 	 
H 	 42.5035 	 -16.9814 	 -123.271 	 
H 	 42.8349 	 -18.233 	 -122.125 	 
C 	 43.3524 	 -16.4834 	 -121.435 	 
H 	 43.1459 	 -15.4414 	 -121.721 	 
H 	 44.3773 	 -16.677 	 -121.81 	 
H 	 43.2332 	 -16.6439 	 -120.378 	 
H 	 35.6023 	 -13.8074 	 -120.864 	 
H 	 39.2825 	 -18.7528 	 -126.05 	 
