34

S 	 -93.2544 	 1.5138 	 0.914405 	 
C 	 -91.7833 	 0.781164 	 1.44067 	 
C 	 -91.156 	 1.55767 	 2.43967 	 
C 	 -91.9843 	 2.6586 	 2.81011 	 
C 	 -93.0588 	 2.82389 	 2.01855 	 
H 	 -91.8232 	 3.21343 	 3.72403 	 
C 	 -89.782 	 1.23354 	 2.99311 	 
H 	 -89.2313 	 2.14749 	 2.91109 	 
H 	 -89.2252 	 0.549959 	 2.31951 	 
C 	 -89.7965 	 0.59294 	 4.43913 	 
H 	 -90.2002 	 1.33523 	 5.17358 	 
H 	 -90.4533 	 -0.291939 	 4.34565 	 
C 	 -88.366 	 0.118433 	 4.82916 	 
H 	 -87.5662 	 0.859464 	 4.59361 	 
H 	 -88.3988 	 0.0242936 	 5.92578 	 
H 	 -88.1156 	 -0.85267 	 4.306 	 
S 	 -95.7671 	 3.44644 	 2.30541 	 
C 	 -96.2251 	 5.08248 	 2.55396 	 
C 	 -95.1356 	 5.91098 	 2.46469 	 
C 	 -93.8953 	 5.26337 	 2.12728 	 
C 	 -94.0702 	 3.87015 	 2.06941 	 
H 	 -95.233 	 6.95256 	 2.737 	 
C 	 -92.5859 	 6.01022 	 2.19947 	 
H 	 -92.0738 	 5.68919 	 3.09407 	 
H 	 -92.8619 	 7.06498 	 2.31155 	 
C 	 -91.6611 	 5.81787 	 0.954887 	 
H 	 -91.7237 	 4.74072 	 0.724776 	 
H 	 -90.6152 	 6.01084 	 1.24533 	 
C 	 -91.8948 	 6.62971 	 -0.334158 	 
H 	 -92.8477 	 6.25449 	 -0.786226 	 
H 	 -91.1399 	 6.46128 	 -1.134 	 
H 	 -91.9983 	 7.70581 	 -0.173092 	 
H 	 -91.3161 	 -0.0772945 	 1.02599 	 
H 	 -97.2276 	 5.44749 	 2.77086 	 
