34

S 	 -54.5156 	 -40.6787 	 -76.7523 	 
C 	 -55.1641 	 -40.7737 	 -75.1228 	 
C 	 -54.3148 	 -41.5925 	 -74.3834 	 
C 	 -53.3074 	 -42.2721 	 -75.206 	 
C 	 -53.3125 	 -41.9045 	 -76.5105 	 
H 	 -52.4962 	 -42.9318 	 -74.8811 	 
C 	 -54.5654 	 -41.996 	 -72.9489 	 
H 	 -53.8793 	 -41.3837 	 -72.3838 	 
H 	 -54.2545 	 -43.1014 	 -72.9401 	 
C 	 -56.016 	 -41.996 	 -72.4455 	 
H 	 -56.4382 	 -40.975 	 -72.581 	 
H 	 -56.4944 	 -42.8099 	 -72.9927 	 
C 	 -56.0802 	 -42.4878 	 -71.0433 	 
H 	 -55.679 	 -41.7174 	 -70.4648 	 
H 	 -57.1064 	 -42.5616 	 -70.7034 	 
H 	 -55.4554 	 -43.3332 	 -70.7165 	 
S 	 -53.1474 	 -42.3162 	 -79.2391 	 
C 	 -51.7669 	 -43.1268 	 -79.8927 	 
C 	 -50.8227 	 -43.4028 	 -78.942 	 
C 	 -51.2046 	 -43.0223 	 -77.6238 	 
C 	 -52.4544 	 -42.4027 	 -77.5941 	 
H 	 -49.8658 	 -43.9444 	 -79.0762 	 
C 	 -50.2798 	 -43.4238 	 -76.4139 	 
H 	 -50.474 	 -42.7619 	 -75.5794 	 
H 	 -49.1833 	 -43.3614 	 -76.6254 	 
C 	 -50.4933 	 -44.8656 	 -75.9143 	 
H 	 -51.5428 	 -45.2128 	 -76.0575 	 
H 	 -50.1714 	 -44.9838 	 -74.8784 	 
C 	 -49.7666 	 -45.9341 	 -76.8409 	 
H 	 -50.1421 	 -46.9431 	 -76.69 	 
H 	 -48.7263 	 -46.0296 	 -76.6592 	 
H 	 -49.9474 	 -45.7332 	 -77.9274 	 
H 	 -55.9918 	 -40.2296 	 -74.7926 	 
H 	 -51.6708 	 -43.3485 	 -80.9305 	 
