34

S 	 44.4842 	 -15.1358 	 -118.333 	 
C 	 45.6097 	 -15.5418 	 -116.944 	 
C 	 46.8728 	 -15.7157 	 -117.421 	 
C 	 46.9155 	 -15.8369 	 -118.861 	 
C 	 45.6627 	 -15.62 	 -119.514 	 
H 	 47.7805 	 -16.0095 	 -119.49 	 
C 	 48.0983 	 -15.905 	 -116.553 	 
H 	 48.9009 	 -16.35 	 -117.142 	 
H 	 47.7798 	 -16.5852 	 -115.766 	 
C 	 48.6498 	 -14.661 	 -115.877 	 
H 	 47.7929 	 -14.1958 	 -115.36 	 
H 	 49.4325 	 -14.8448 	 -115.184 	 
C 	 49.2158 	 -13.5832 	 -116.93 	 
H 	 48.5619 	 -13.394 	 -117.807 	 
H 	 49.3968 	 -12.6322 	 -116.448 	 
H 	 50.25 	 -13.7289 	 -117.357 	 
S 	 44.243 	 -17.0293 	 -121.476 	 
C 	 44.4 	 -16.4849 	 -123.141 	 
C 	 45.2248 	 -15.3742 	 -123.261 	 
C 	 45.8224 	 -15.0043 	 -121.995 	 
C 	 45.4073 	 -15.785 	 -120.932 	 
H 	 45.5696 	 -14.8886 	 -124.166 	 
C 	 46.8657 	 -13.9146 	 -121.922 	 
H 	 47.6853 	 -14.1769 	 -122.577 	 
H 	 47.2038 	 -13.9779 	 -120.849 	 
C 	 46.4722 	 -12.5317 	 -122.341 	 
H 	 45.5747 	 -12.2814 	 -121.77 	 
H 	 46.2023 	 -12.4767 	 -123.427 	 
C 	 47.5969 	 -11.4838 	 -122.173 	 
H 	 48.2614 	 -11.6209 	 -121.355 	 
H 	 47.1891 	 -10.4314 	 -122.245 	 
H 	 48.2904 	 -11.5035 	 -123.045 	 
H 	 45.4128 	 -15.1987 	 -115.913 	 
H 	 43.812 	 -16.8563 	 -123.939 	 
