34

S 	 -133.372 	 23.6764 	 -20.2734 	 
C 	 -133.27 	 24.5954 	 -18.7801 	 
C 	 -131.988 	 25.1171 	 -18.6245 	 
C 	 -131.244 	 24.9512 	 -19.8688 	 
C 	 -131.774 	 24.0018 	 -20.7271 	 
H 	 -130.202 	 25.3671 	 -19.9489 	 
C 	 -131.496 	 25.796 	 -17.3485 	 
H 	 -132.232 	 25.9088 	 -16.6577 	 
H 	 -131.006 	 26.7332 	 -17.5348 	 
C 	 -130.422 	 24.8964 	 -16.5799 	 
H 	 -130.906 	 24.0069 	 -16.1768 	 
H 	 -129.575 	 24.6862 	 -17.2706 	 
C 	 -129.755 	 25.4587 	 -15.2573 	 
H 	 -128.982 	 26.226 	 -15.5808 	 
H 	 -130.46 	 25.9664 	 -14.5167 	 
H 	 -129.351 	 24.6076 	 -14.6588 	 
S 	 -132.27 	 23.0531 	 -23.3243 	 
C 	 -130.991 	 22.1497 	 -24.1238 	 
C 	 -129.848 	 22.155 	 -23.3679 	 
C 	 -129.951 	 22.8073 	 -22.1023 	 
C 	 -131.2 	 23.3892 	 -21.9339 	 
H 	 -128.978 	 21.6295 	 -23.724 	 
C 	 -128.793 	 22.9143 	 -21.1096 	 
H 	 -128.393 	 23.8881 	 -21.0917 	 
H 	 -127.899 	 22.4765 	 -21.5543 	 
C 	 -128.85 	 22.4611 	 -19.6566 	 
H 	 -129.314 	 21.459 	 -19.554 	 
H 	 -129.482 	 23.1984 	 -19.144 	 
C 	 -127.473 	 22.4024 	 -19.1106 	 
H 	 -127.391 	 22.2793 	 -18.0322 	 
H 	 -126.872 	 23.2728 	 -19.301 	 
H 	 -126.847 	 21.5088 	 -19.4443 	 
H 	 -134.093 	 24.8666 	 -18.1194 	 
H 	 -131.04 	 21.7779 	 -25.1716 	 
