34

S 	 -64.2773 	 15.5627 	 -106.313 	 
C 	 -64.6557 	 15.076 	 -104.683 	 
C 	 -64.5106 	 13.7199 	 -104.459 	 
C 	 -64.1408 	 13.0507 	 -105.688 	 
C 	 -64.0536 	 13.8997 	 -106.813 	 
H 	 -63.9562 	 11.9536 	 -105.756 	 
C 	 -64.6704 	 13.0358 	 -103.13 	 
H 	 -64.3866 	 13.7002 	 -102.364 	 
H 	 -63.8334 	 12.3833 	 -103.027 	 
C 	 -66.0446 	 12.4813 	 -102.788 	 
H 	 -66.7814 	 13.2577 	 -102.827 	 
H 	 -66.4235 	 11.7446 	 -103.498 	 
C 	 -66.1302 	 11.9045 	 -101.389 	 
H 	 -67.1669 	 11.8637 	 -100.899 	 
H 	 -65.7639 	 10.8533 	 -101.383 	 
H 	 -65.447 	 12.4488 	 -100.814 	 
S 	 -62.814 	 14.8721 	 -109.151 	 
C 	 -62.3349 	 13.7009 	 -110.382 	 
C 	 -62.6423 	 12.4491 	 -110.074 	 
C 	 -63.2367 	 12.2927 	 -108.754 	 
C 	 -63.5504 	 13.5792 	 -108.175 	 
H 	 -62.3183 	 11.6855 	 -110.763 	 
C 	 -63.7395 	 10.8996 	 -108.266 	 
H 	 -64.6261 	 10.7194 	 -109.006 	 
H 	 -64.2567 	 11.0507 	 -107.359 	 
C 	 -62.734 	 9.7625 	 -108.28 	 
H 	 -62.5208 	 9.43093 	 -109.251 	 
H 	 -63.1909 	 8.90703 	 -107.878 	 
C 	 -61.3809 	 10.1971 	 -107.627 	 
H 	 -60.6712 	 9.41775 	 -107.806 	 
H 	 -61.535 	 10.2177 	 -106.521 	 
H 	 -60.9785 	 11.1124 	 -108.114 	 
H 	 -64.9276 	 15.8276 	 -103.963 	 
H 	 -61.7494 	 13.9723 	 -111.271 	 
