34

S 	 -119.491 	 20.0128 	 -23.4208 	 
C 	 -118.036 	 19.1012 	 -23.1133 	 
C 	 -117.331 	 19.6043 	 -21.9884 	 
C 	 -117.984 	 20.769 	 -21.5132 	 
C 	 -119.194 	 21.1231 	 -22.1 	 
H 	 -117.728 	 21.3503 	 -20.6398 	 
C 	 -115.95 	 19.1747 	 -21.4328 	 
H 	 -115.951 	 18.1024 	 -21.309 	 
H 	 -115.848 	 19.5563 	 -20.4355 	 
C 	 -114.8 	 19.5872 	 -22.3145 	 
H 	 -115.032 	 19.1542 	 -23.3254 	 
H 	 -114.698 	 20.6754 	 -22.307 	 
C 	 -113.437 	 18.9611 	 -21.9693 	 
H 	 -113.532 	 17.9332 	 -21.5365 	 
H 	 -112.893 	 18.7477 	 -22.9178 	 
H 	 -112.896 	 19.6711 	 -21.3492 	 
S 	 -121.711 	 21.7691 	 -21.4956 	 
C 	 -122.116 	 23.3329 	 -20.9808 	 
C 	 -120.996 	 24.0761 	 -20.6956 	 
C 	 -119.777 	 23.4379 	 -21.1577 	 
C 	 -120.024 	 22.189 	 -21.6871 	 
H 	 -120.957 	 25.0273 	 -20.1488 	 
C 	 -118.485 	 24.1168 	 -21.1623 	 
H 	 -118.633 	 25.0053 	 -21.7989 	 
H 	 -117.76 	 23.5915 	 -21.8401 	 
C 	 -117.755 	 24.3627 	 -19.8994 	 
H 	 -117.934 	 23.4557 	 -19.3468 	 
H 	 -118.164 	 25.2323 	 -19.4488 	 
C 	 -116.258 	 24.581 	 -19.9363 	 
H 	 -115.675 	 23.6792 	 -20.2371 	 
H 	 -115.864 	 24.8562 	 -18.9956 	 
H 	 -115.94 	 25.3682 	 -20.5802 	 
H 	 -117.716 	 18.2684 	 -23.6502 	 
H 	 -123.094 	 23.6199 	 -20.6225 	 
