34

S 	 -55.8996 	 5.19803 	 -29.8632 	 
C 	 -57.5461 	 5.10137 	 -29.3798 	 
C 	 -58.1195 	 6.34396 	 -29.4577 	 
C 	 -57.2595 	 7.36115 	 -29.9546 	 
C 	 -55.9857 	 6.90324 	 -30.1726 	 
H 	 -57.6799 	 8.28734 	 -30.0952 	 
C 	 -59.5709 	 6.57201 	 -28.8942 	 
H 	 -60.0641 	 5.71004 	 -28.5581 	 
H 	 -60.137 	 6.83941 	 -29.8277 	 
C 	 -59.8034 	 7.82319 	 -28.0577 	 
H 	 -59.3127 	 7.60316 	 -27.1282 	 
H 	 -59.2551 	 8.69718 	 -28.3765 	 
C 	 -61.2765 	 8.14298 	 -27.7236 	 
H 	 -61.7674 	 7.25846 	 -27.2117 	 
H 	 -61.35 	 9.01662 	 -27.0092 	 
H 	 -61.6575 	 8.4378 	 -28.7171 	 
S 	 -53.3419 	 7.07179 	 -30.4247 	 
C 	 -52.5181 	 8.5249 	 -30.8703 	 
C 	 -53.3974 	 9.49286 	 -31.2381 	 
C 	 -54.8014 	 9.07725 	 -31.1655 	 
C 	 -54.8896 	 7.82593 	 -30.574 	 
H 	 -53.0129 	 10.497 	 -31.3809 	 
C 	 -55.8434 	 10.0054 	 -31.6411 	 
H 	 -55.5484 	 11.025 	 -31.5919 	 
H 	 -56.5549 	 9.98856 	 -30.8194 	 
C 	 -56.5409 	 9.64343 	 -32.9211 	 
H 	 -57.5325 	 10.0444 	 -32.9475 	 
H 	 -56.5469 	 8.48022 	 -32.9261 	 
C 	 -55.6277 	 10.0217 	 -34.1092 	 
H 	 -54.7194 	 9.53888 	 -33.9085 	 
H 	 -55.5186 	 11.0931 	 -34.0899 	 
H 	 -56.0954 	 9.58844 	 -35.0356 	 
H 	 -58.0438 	 4.16533 	 -29.2215 	 
H 	 -51.4425 	 8.73502 	 -30.8015 	 
