34

S 	 -32.3022 	 -36.8432 	 -91.6135 	 
C 	 -32.7884 	 -35.2023 	 -91.7315 	 
C 	 -31.7537 	 -34.3067 	 -91.3684 	 
C 	 -30.5582 	 -35.0717 	 -91.2293 	 
C 	 -30.6525 	 -36.4326 	 -91.3862 	 
H 	 -29.5977 	 -34.6572 	 -90.9689 	 
C 	 -31.9452 	 -32.8356 	 -91.0721 	 
H 	 -31.4627 	 -32.7467 	 -90.1016 	 
H 	 -33.0142 	 -32.6588 	 -90.9673 	 
C 	 -31.3987 	 -31.8382 	 -92.1064 	 
H 	 -31.4886 	 -30.8122 	 -91.7463 	 
H 	 -30.3601 	 -31.935 	 -92.2564 	 
C 	 -32.0514 	 -32.087 	 -93.5193 	 
H 	 -31.9176 	 -33.1204 	 -93.8477 	 
H 	 -33.1426 	 -32.046 	 -93.449 	 
H 	 -31.6141 	 -31.4235 	 -94.2657 	 
S 	 -29.3585 	 -38.4156 	 -92.6717 	 
C 	 -28.0313 	 -39.2741 	 -91.9319 	 
C 	 -27.8037 	 -38.7551 	 -90.6834 	 
C 	 -28.6697 	 -37.7682 	 -90.2172 	 
C 	 -29.6048 	 -37.4634 	 -91.2127 	 
H 	 -27.0256 	 -39.1955 	 -90.0838 	 
C 	 -28.5317 	 -37.0627 	 -88.8831 	 
H 	 -28.0639 	 -36.1075 	 -89.0173 	 
H 	 -27.8167 	 -37.6108 	 -88.2112 	 
C 	 -29.8727 	 -36.9322 	 -88.0946 	 
H 	 -30.1701 	 -38.0164 	 -88.01 	 
H 	 -30.6766 	 -36.4794 	 -88.6752 	 
C 	 -29.7388 	 -36.4036 	 -86.6988 	 
H 	 -29.2236 	 -37.1435 	 -86.1177 	 
H 	 -30.7214 	 -36.2232 	 -86.2328 	 
H 	 -29.1855 	 -35.4811 	 -86.6818 	 
H 	 -33.8665 	 -34.908 	 -91.709 	 
H 	 -27.5974 	 -40.0853 	 -92.4075 	 
