34

S 	 -92.229 	 -6.22343 	 -120.681 	 
C 	 -93.2052 	 -6.33225 	 -122.184 	 
C 	 -94.5587 	 -6.12119 	 -122.005 	 
C 	 -94.7799 	 -5.81574 	 -120.648 	 
C 	 -93.6051 	 -5.64484 	 -119.802 	 
H 	 -95.7394 	 -5.51523 	 -120.233 	 
C 	 -95.6783 	 -6.18511 	 -123.045 	 
H 	 -95.3533 	 -6.90075 	 -123.85 	 
H 	 -95.8115 	 -5.20342 	 -123.482 	 
C 	 -97.047 	 -6.64475 	 -122.535 	 
H 	 -97.325 	 -5.84303 	 -121.788 	 
H 	 -97.9801 	 -6.54304 	 -123.133 	 
C 	 -96.9309 	 -8.03478 	 -121.756 	 
H 	 -96.079 	 -8.3029 	 -121.134 	 
H 	 -97.8583 	 -8.17743 	 -121.15 	 
H 	 -96.8002 	 -8.85211 	 -122.496 	 
S 	 -92.1218 	 -4.24462 	 -117.972 	 
C 	 -92.5662 	 -4.29402 	 -116.342 	 
C 	 -93.7458 	 -4.92461 	 -116.158 	 
C 	 -94.3039 	 -5.54547 	 -117.299 	 
C 	 -93.5806 	 -5.19773 	 -118.401 	 
H 	 -94.1038 	 -5.08916 	 -115.113 	 
C 	 -95.3952 	 -6.50843 	 -117.075 	 
H 	 -96.0613 	 -6.47312 	 -117.911 	 
H 	 -96.0796 	 -6.26147 	 -116.23 	 
C 	 -95.0777 	 -8.0739 	 -117.125 	 
H 	 -94.5169 	 -8.30704 	 -118.02 	 
H 	 -96.1346 	 -8.4783 	 -116.933 	 
C 	 -94.3495 	 -8.75603 	 -115.943 	 
H 	 -94.6205 	 -9.83191 	 -116.03 	 
H 	 -94.5534 	 -8.35056 	 -114.939 	 
H 	 -93.289 	 -8.57049 	 -115.979 	 
H 	 -92.7842 	 -6.6432 	 -123.102 	 
H 	 -92.0091 	 -3.75455 	 -115.606 	 
