34

S 	 -54.4967 	 -51.4959 	 -87.3469 	 
C 	 -55.4928 	 -50.7051 	 -88.5777 	 
C 	 -56.5869 	 -50.0873 	 -87.9931 	 
C 	 -56.6384 	 -50.2507 	 -86.5703 	 
C 	 -55.6716 	 -51.059 	 -86.1099 	 
H 	 -57.3823 	 -49.7979 	 -85.9129 	 
C 	 -57.7096 	 -49.3011 	 -88.6727 	 
H 	 -57.8744 	 -48.4207 	 -88.0239 	 
H 	 -58.6194 	 -49.9421 	 -88.7289 	 
C 	 -57.4064 	 -48.865 	 -90.1092 	 
H 	 -56.6688 	 -48.0107 	 -90.0218 	 
H 	 -56.9144 	 -49.6252 	 -90.8358 	 
C 	 -58.7253 	 -48.5315 	 -90.9059 	 
H 	 -59.3996 	 -49.3434 	 -91.0478 	 
H 	 -59.2336 	 -47.8072 	 -90.3106 	 
H 	 -58.458 	 -47.9903 	 -91.805 	 
S 	 -54.001 	 -50.2686 	 -84.0255 	 
C 	 -54.54 	 -50.5541 	 -82.4191 	 
C 	 -55.49 	 -51.5522 	 -82.3869 	 
C 	 -56.1761 	 -51.771 	 -83.6679 	 
C 	 -55.4006 	 -51.1946 	 -84.7036 	 
H 	 -55.9473 	 -51.8207 	 -81.4053 	 
C 	 -57.5543 	 -52.4539 	 -83.8575 	 
H 	 -57.8043 	 -52.574 	 -84.8834 	 
H 	 -58.2594 	 -51.7702 	 -83.4001 	 
C 	 -57.7729 	 -53.7528 	 -83.0961 	 
H 	 -58.7841 	 -54.0889 	 -83.3127 	 
H 	 -57.917 	 -53.5799 	 -81.9875 	 
C 	 -56.7532 	 -54.9044 	 -83.3817 	 
H 	 -56.2453 	 -54.7778 	 -84.2566 	 
H 	 -57.2274 	 -55.8386 	 -83.3436 	 
H 	 -56.0446 	 -54.8073 	 -82.5728 	 
H 	 -55.1869 	 -50.5842 	 -89.6332 	 
H 	 -54.095 	 -50.1653 	 -81.4987 	 
