34

S 	 -85.0019 	 0.0266692 	 5.58268 	 
C 	 -84.7309 	 -0.451504 	 3.94871 	 
C 	 -85.7822 	 -1.12914 	 3.35096 	 
C 	 -86.9416 	 -1.18645 	 4.20626 	 
C 	 -86.6085 	 -0.689957 	 5.44469 	 
H 	 -87.8853 	 -1.71075 	 3.96734 	 
C 	 -85.7398 	 -1.92833 	 1.99593 	 
H 	 -86.3134 	 -2.84066 	 2.21348 	 
H 	 -84.7999 	 -2.26171 	 1.73906 	 
C 	 -86.4333 	 -1.24686 	 0.817706 	 
H 	 -86.4726 	 -1.97444 	 0.0459723 	 
H 	 -87.4254 	 -0.98772 	 1.02223 	 
C 	 -85.8086 	 0.116704 	 0.536128 	 
H 	 -84.7603 	 0.0427908 	 0.525785 	 
H 	 -86.2072 	 0.64509 	 -0.414878 	 
H 	 -85.9826 	 0.967611 	 1.24537 	 
S 	 -87.8503 	 0.805919 	 7.35905 	 
C 	 -89.119 	 0.063252 	 8.39515 	 
C 	 -89.194 	 -1.27725 	 8.0924 	 
C 	 -88.289 	 -1.7349 	 7.08697 	 
C 	 -87.4638 	 -0.683215 	 6.63038 	 
H 	 -89.9557 	 -1.87192 	 8.60387 	 
C 	 -88.2839 	 -3.15646 	 6.67443 	 
H 	 -88.1646 	 -3.28555 	 5.59083 	 
H 	 -89.248 	 -3.4994 	 6.98663 	 
C 	 -87.3617 	 -4.10111 	 7.48002 	 
H 	 -87.7599 	 -4.12301 	 8.48726 	 
H 	 -86.3269 	 -3.78349 	 7.4765 	 
C 	 -87.3935 	 -5.5987 	 7.00986 	 
H 	 -86.6045 	 -6.22171 	 7.3794 	 
H 	 -87.3915 	 -5.5645 	 5.87783 	 
H 	 -88.3773 	 -6.10472 	 7.14179 	 
H 	 -83.725 	 -0.249984 	 3.57569 	 
H 	 -89.8031 	 0.485156 	 9.09183 	 
