34

S 	 -34.6301 	 8.99424 	 8.98974 	 
C 	 -35.0515 	 10.6983 	 8.7604 	 
C 	 -34.4873 	 11.5091 	 9.76323 	 
C 	 -33.618 	 10.7916 	 10.5976 	 
C 	 -33.4986 	 9.40919 	 10.2766 	 
H 	 -33.0823 	 11.1121 	 11.4691 	 
C 	 -34.689 	 13.0591 	 9.8307 	 
H 	 -35.556 	 13.3436 	 9.26837 	 
H 	 -33.8031 	 13.5007 	 9.34168 	 
C 	 -34.7077 	 13.7372 	 11.231 	 
H 	 -35.5247 	 13.2325 	 11.821 	 
H 	 -33.7298 	 13.5737 	 11.7783 	 
C 	 -34.9361 	 15.2894 	 11.1567 	 
H 	 -34.8933 	 15.7766 	 12.1046 	 
H 	 -34.3156 	 15.8433 	 10.4796 	 
H 	 -35.9476 	 15.3832 	 10.7733 	 
S 	 -31.7669 	 7.42704 	 9.9598 	 
C 	 -31.0073 	 6.7083 	 11.3218 	 
C 	 -31.2879 	 7.37566 	 12.5255 	 
C 	 -32.292 	 8.32259 	 12.3677 	 
C 	 -32.7069 	 8.44283 	 10.9946 	 
H 	 -30.9475 	 7.07885 	 13.4845 	 
C 	 -32.6947 	 9.27026 	 13.5199 	 
H 	 -32.1385 	 10.2013 	 13.515 	 
H 	 -32.3099 	 8.86738 	 14.4709 	 
C 	 -34.3091 	 9.52315 	 13.6453 	 
H 	 -34.8626 	 8.67173 	 13.8501 	 
H 	 -34.7902 	 9.89048 	 12.7433 	 
C 	 -34.6497 	 10.3909 	 14.9258 	 
H 	 -34.1271 	 11.327 	 14.9697 	 
H 	 -34.4345 	 9.76031 	 15.7349 	 
H 	 -35.7141 	 10.5374 	 14.9227 	 
H 	 -35.9044 	 11.126 	 8.19457 	 
H 	 -30.3256 	 5.90901 	 11.3675 	 
