34

S 	 -107.457 	 18.1751 	 -114.014 	 
C 	 -106.029 	 17.6372 	 -114.945 	 
C 	 -105.322 	 18.7401 	 -115.442 	 
C 	 -106.138 	 19.862 	 -115.507 	 
C 	 -107.301 	 19.7247 	 -114.786 	 
H 	 -105.873 	 20.7017 	 -116.013 	 
C 	 -104.042 	 18.6282 	 -116.246 	 
H 	 -104.155 	 17.8264 	 -116.935 	 
H 	 -103.368 	 18.3411 	 -115.492 	 
C 	 -103.441 	 20.0078 	 -116.807 	 
H 	 -102.518 	 19.9495 	 -117.388 	 
H 	 -104.107 	 20.5432 	 -117.45 	 
C 	 -102.883 	 20.8836 	 -115.643 	 
H 	 -102.223 	 20.3694 	 -115.039 	 
H 	 -102.528 	 21.8332 	 -115.972 	 
H 	 -103.759 	 21.1314 	 -115.043 	 
S 	 -108.408 	 21.4221 	 -112.949 	 
C 	 -109.734 	 22.4189 	 -113.438 	 
C 	 -110.011 	 22.2873 	 -114.768 	 
C 	 -109.234 	 21.3185 	 -115.442 	 
C 	 -108.35 	 20.7422 	 -114.555 	 
H 	 -110.908 	 22.7154 	 -115.236 	 
C 	 -109.392 	 20.9881 	 -116.964 	 
H 	 -110.395 	 21.1018 	 -117.242 	 
H 	 -109.159 	 19.9928 	 -116.945 	 
C 	 -108.52 	 21.8618 	 -117.881 	 
H 	 -107.615 	 22.1441 	 -117.306 	 
H 	 -109.036 	 22.7577 	 -118.075 	 
C 	 -108.226 	 21.2994 	 -119.292 	 
H 	 -107.551 	 21.9627 	 -119.905 	 
H 	 -109.15 	 21.1541 	 -119.905 	 
H 	 -107.743 	 20.3053 	 -119.282 	 
H 	 -105.617 	 16.639 	 -114.938 	 
H 	 -110.356 	 23.0335 	 -112.71 	 
