34

S 	 -67.4369 	 10.7505 	 -75.0482 	 
C 	 -69.1422 	 11.1222 	 -74.9555 	 
C 	 -69.6538 	 11.0425 	 -73.6648 	 
C 	 -68.5797 	 11.1862 	 -72.7316 	 
C 	 -67.3241 	 11.0501 	 -73.3373 	 
H 	 -68.5944 	 11.2713 	 -71.6444 	 
C 	 -71.0791 	 11.1973 	 -73.3531 	 
H 	 -71.6051 	 11.5052 	 -74.2839 	 
H 	 -71.204 	 11.9746 	 -72.5801 	 
C 	 -71.9081 	 10.0383 	 -72.8559 	 
H 	 -71.9232 	 10.1521 	 -71.8063 	 
H 	 -72.957 	 10.182 	 -73.1672 	 
C 	 -71.5238 	 8.57606 	 -73.0673 	 
H 	 -72.3987 	 7.91571 	 -72.9606 	 
H 	 -71.128 	 8.45154 	 -74.0778 	 
H 	 -70.7467 	 8.28674 	 -72.3556 	 
S 	 -65.1346 	 12.4674 	 -72.4771 	 
C 	 -63.9841 	 11.704 	 -71.4824 	 
C 	 -64.3875 	 10.439 	 -71.1442 	 
C 	 -65.5658 	 10.0598 	 -71.7699 	 
C 	 -66.0714 	 11.0399 	 -72.5731 	 
H 	 -63.8077 	 9.94809 	 -70.463 	 
C 	 -66.064 	 8.65114 	 -71.648 	 
H 	 -67.1736 	 8.59302 	 -71.9231 	 
H 	 -65.7844 	 8.47494 	 -70.6075 	 
C 	 -65.1719 	 7.74565 	 -72.5392 	 
H 	 -64.1311 	 7.9533 	 -72.3151 	 
H 	 -65.3866 	 8.09333 	 -73.5307 	 
C 	 -65.4645 	 6.29005 	 -72.2114 	 
H 	 -65.4893 	 6.09187 	 -71.1033 	 
H 	 -64.588 	 5.67514 	 -72.5093 	 
H 	 -66.3822 	 5.84109 	 -72.6949 	 
H 	 -69.7787 	 11.0972 	 -75.8002 	 
H 	 -63.1401 	 12.1071 	 -71.0636 	 
