34

S 	 -17.9349 	 -29.5766 	 -103.399 	 
C 	 -18.0278 	 -28.2072 	 -102.32 	 
C 	 -18.7437 	 -28.5507 	 -101.138 	 
C 	 -19.0141 	 -29.9619 	 -101.147 	 
C 	 -18.5105 	 -30.6559 	 -102.164 	 
H 	 -19.4802 	 -30.4992 	 -100.352 	 
C 	 -19.2596 	 -27.6574 	 -100.043 	 
H 	 -20.3313 	 -27.7583 	 -100.238 	 
H 	 -18.8912 	 -26.6232 	 -100.181 	 
C 	 -18.9643 	 -28.1309 	 -98.6251 	 
H 	 -19.5857 	 -27.6326 	 -97.9317 	 
H 	 -19.1266 	 -29.1999 	 -98.5448 	 
C 	 -17.5452 	 -27.781 	 -98.1639 	 
H 	 -16.8348 	 -28.1697 	 -98.8383 	 
H 	 -17.3136 	 -26.6978 	 -97.9603 	 
H 	 -17.3771 	 -28.3842 	 -97.2488 	 
S 	 -19.6856 	 -32.5177 	 -103.793 	 
C 	 -19.6328 	 -34.221 	 -103.526 	 
C 	 -18.8129 	 -34.4757 	 -102.491 	 
C 	 -18.3258 	 -33.3362 	 -101.768 	 
C 	 -18.6335 	 -32.1203 	 -102.439 	 
H 	 -18.5466 	 -35.4885 	 -102.283 	 
C 	 -17.4316 	 -33.3904 	 -100.512 	 
H 	 -18.1196 	 -33.4547 	 -99.6444 	 
H 	 -16.7482 	 -32.6098 	 -100.464 	 
C 	 -16.6435 	 -34.7317 	 -100.376 	 
H 	 -17.3012 	 -35.5985 	 -100.322 	 
H 	 -16.1245 	 -34.6987 	 -99.3371 	 
C 	 -15.5849 	 -34.9519 	 -101.501 	 
H 	 -14.8886 	 -34.0276 	 -101.686 	 
H 	 -16.0621 	 -35.2384 	 -102.358 	 
H 	 -14.8758 	 -35.757 	 -101.373 	 
H 	 -17.8005 	 -27.1533 	 -102.567 	 
H 	 -19.9722 	 -35.061 	 -104.135 	 
