34

S 	 -56.7299 	 15.6972 	 21.3552 	 
C 	 -57.0892 	 14.0478 	 20.8791 	 
C 	 -55.9577 	 13.282 	 20.9468 	 
C 	 -54.7662 	 14.042 	 21.2774 	 
C 	 -55.0076 	 15.3567 	 21.5785 	 
H 	 -53.7416 	 13.6733 	 21.3917 	 
C 	 -55.9299 	 11.7996 	 20.7813 	 
H 	 -55.1192 	 11.5538 	 21.4016 	 
H 	 -55.6235 	 11.6915 	 19.7258 	 
C 	 -57.1756 	 11.0737 	 21.1375 	 
H 	 -57.5684 	 11.2641 	 22.1386 	 
H 	 -57.9643 	 11.3441 	 20.5175 	 
C 	 -56.9319 	 9.56444 	 20.9746 	 
H 	 -56.8046 	 9.41704 	 19.8984 	 
H 	 -56.1914 	 9.14856 	 21.5651 	 
H 	 -57.8045 	 9.06343 	 21.3559 	 
S 	 -54.1429 	 17.5704 	 23.1537 	 
C 	 -52.6541 	 18.3821 	 22.7118 	 
C 	 -52.146 	 17.8575 	 21.578 	 
C 	 -52.9253 	 16.7805 	 21.0143 	 
C 	 -54.0653 	 16.4689 	 21.7614 	 
H 	 -51.1634 	 18.2643 	 21.2969 	 
C 	 -52.4367 	 16.0527 	 19.7812 	 
H 	 -53.3367 	 15.485 	 19.5161 	 
H 	 -51.7424 	 15.3492 	 20.0759 	 
C 	 -52.1321 	 16.7967 	 18.4326 	 
H 	 -52.8423 	 17.5453 	 18.1257 	 
H 	 -52.089 	 15.9992 	 17.6515 	 
C 	 -50.6651 	 17.3978 	 18.439 	 
H 	 -50.5629 	 18.1591 	 19.15 	 
H 	 -50.2951 	 17.8569 	 17.5339 	 
H 	 -49.9315 	 16.6547 	 18.7309 	 
H 	 -58.0273 	 13.7801 	 20.469 	 
H 	 -52.2291 	 19.205 	 23.4122 	 
