34

S 	 -119.683 	 18.1679 	 -114.009 	 
C 	 -119.742 	 19.9709 	 -114.127 	 
C 	 -118.636 	 20.4681 	 -113.433 	 
C 	 -117.715 	 19.4578 	 -112.916 	 
C 	 -118.185 	 18.168 	 -113.238 	 
H 	 -116.749 	 19.6566 	 -112.388 	 
C 	 -118.263 	 21.8944 	 -113.389 	 
H 	 -117.97 	 22.1372 	 -112.302 	 
H 	 -119.143 	 22.5826 	 -113.646 	 
C 	 -117.111 	 22.4046 	 -114.293 	 
H 	 -116.802 	 23.3904 	 -113.992 	 
H 	 -116.252 	 21.7782 	 -114.037 	 
C 	 -117.432 	 22.4773 	 -115.793 	 
H 	 -117.347 	 21.5248 	 -116.219 	 
H 	 -118.478 	 22.744 	 -116.03 	 
H 	 -116.725 	 23.1905 	 -116.261 	 
S 	 -118.649 	 15.8948 	 -111.763 	 
C 	 -117.282 	 14.9439 	 -111.202 	 
C 	 -116.082 	 15.3744 	 -111.702 	 
C 	 -116.246 	 16.4652 	 -112.642 	 
C 	 -117.526 	 16.9488 	 -112.655 	 
H 	 -115.079 	 14.9713 	 -111.405 	 
C 	 -115.105 	 17.1392 	 -113.351 	 
H 	 -115.008 	 18.1527 	 -112.843 	 
H 	 -115.421 	 17.5251 	 -114.291 	 
C 	 -113.728 	 16.3727 	 -113.334 	 
H 	 -113.736 	 15.3855 	 -113.772 	 
H 	 -113.529 	 16.2271 	 -112.272 	 
C 	 -112.655 	 17.2396 	 -113.963 	 
H 	 -111.621 	 16.8701 	 -113.831 	 
H 	 -112.534 	 18.2015 	 -113.539 	 
H 	 -112.927 	 17.374 	 -115.073 	 
H 	 -120.459 	 20.556 	 -114.669 	 
H 	 -117.399 	 14.1659 	 -110.431 	 
