34

S 	 -91.3903 	 -11.1593 	 -117.685 	 
C 	 -90.1762 	 -11.3881 	 -118.919 	 
C 	 -88.9864 	 -10.8183 	 -118.483 	 
C 	 -89.2026 	 -9.7637 	 -117.574 	 
C 	 -90.5865 	 -9.69419 	 -117.187 	 
H 	 -88.4629 	 -9.07662 	 -117.227 	 
C 	 -87.6323 	 -11.0813 	 -119.115 	 
H 	 -87.8407 	 -11.8883 	 -119.873 	 
H 	 -86.9368 	 -11.3969 	 -118.332 	 
C 	 -86.8093 	 -9.86963 	 -119.775 	 
H 	 -86.5781 	 -9.21598 	 -118.937 	 
H 	 -85.8823 	 -10.2911 	 -120.117 	 
C 	 -87.6255 	 -9.28491 	 -120.934 	 
H 	 -87.146 	 -8.8185 	 -121.76 	 
H 	 -88.16 	 -10.1061 	 -121.44 	 
H 	 -88.428 	 -8.61819 	 -120.498 	 
S 	 -90.485 	 -8.44129 	 -114.744 	 
C 	 -91.7715 	 -7.40687 	 -114.284 	 
C 	 -92.6138 	 -7.17009 	 -115.359 	 
C 	 -92.3904 	 -7.9742 	 -116.448 	 
C 	 -91.2387 	 -8.71375 	 -116.322 	 
H 	 -93.3885 	 -6.47167 	 -115.309 	 
C 	 -93.2423 	 -7.90845 	 -117.712 	 
H 	 -94.0431 	 -8.62422 	 -117.562 	 
H 	 -92.6317 	 -8.31655 	 -118.502 	 
C 	 -93.622 	 -6.48335 	 -118.189 	 
H 	 -92.5899 	 -6.01675 	 -118.269 	 
H 	 -94.2139 	 -5.92067 	 -117.368 	 
C 	 -94.3826 	 -6.53015 	 -119.516 	 
H 	 -94.5814 	 -5.46572 	 -119.867 	 
H 	 -95.3499 	 -7.0437 	 -119.466 	 
H 	 -93.8099 	 -7.0573 	 -120.357 	 
H 	 -90.1977 	 -12.1274 	 -119.711 	 
H 	 -91.6716 	 -6.9352 	 -113.313 	 
