34

S 	 -110.015 	 54.9359 	 -89.8884 	 
C 	 -110.033 	 53.7647 	 -91.1751 	 
C 	 -109.579 	 52.5534 	 -90.7233 	 
C 	 -109.46 	 52.4784 	 -89.2955 	 
C 	 -109.698 	 53.6838 	 -88.5923 	 
H 	 -109.287 	 51.5347 	 -88.8038 	 
C 	 -109.401 	 51.26 	 -91.5855 	 
H 	 -108.435 	 50.8453 	 -91.2552 	 
H 	 -109.184 	 51.5495 	 -92.5855 	 
C 	 -110.559 	 50.1947 	 -91.6033 	 
H 	 -110.576 	 49.628 	 -90.7321 	 
H 	 -111.539 	 50.5877 	 -91.6034 	 
C 	 -110.395 	 49.2297 	 -92.8256 	 
H 	 -111.196 	 48.5307 	 -92.7486 	 
H 	 -110.435 	 49.7615 	 -93.798 	 
H 	 -109.475 	 48.6605 	 -92.7918 	 
S 	 -111.052 	 54.9499 	 -86.5279 	 
C 	 -110.297 	 55.1023 	 -84.93 	 
C 	 -109.082 	 54.4152 	 -84.9509 	 
C 	 -108.805 	 53.61 	 -86.0882 	 
C 	 -109.74 	 53.9054 	 -87.1373 	 
H 	 -108.435 	 54.3193 	 -84.0559 	 
C 	 -107.499 	 52.8056 	 -86.2156 	 
H 	 -106.859 	 53.1285 	 -85.4155 	 
H 	 -107.054 	 52.8489 	 -87.2285 	 
C 	 -107.602 	 51.3154 	 -86.0911 	 
H 	 -106.605 	 50.8697 	 -86.2263 	 
H 	 -108.278 	 50.9288 	 -86.9145 	 
C 	 -108.329 	 50.7821 	 -84.7862 	 
H 	 -109.305 	 51.2463 	 -84.6967 	 
H 	 -107.805 	 51.0383 	 -83.8809 	 
H 	 -108.373 	 49.7631 	 -84.8696 	 
H 	 -110.222 	 53.9758 	 -92.2626 	 
H 	 -110.74 	 55.492 	 -84.0716 	 
