34

S 	 -135.421 	 59.9438 	 -61.9806 	 
C 	 -135.86 	 61.6102 	 -61.8856 	 
C 	 -134.816 	 62.366 	 -61.2644 	 
C 	 -133.749 	 61.6072 	 -60.9009 	 
C 	 -133.821 	 60.2756 	 -61.1984 	 
H 	 -132.98 	 62.0955 	 -60.3708 	 
C 	 -134.872 	 63.8848 	 -61.0282 	 
H 	 -135.49 	 64.432 	 -61.7423 	 
H 	 -133.907 	 64.2448 	 -61.2013 	 
C 	 -135.32 	 64.1967 	 -59.5791 	 
H 	 -134.626 	 63.77 	 -58.8034 	 
H 	 -135.409 	 65.2072 	 -59.4318 	 
C 	 -136.73 	 63.7563 	 -59.2284 	 
H 	 -137.454 	 63.82 	 -60.0569 	 
H 	 -136.83 	 62.659 	 -58.9969 	 
H 	 -137.102 	 64.1699 	 -58.3535 	 
S 	 -133.35 	 57.6702 	 -61.1778 	 
C 	 -131.805 	 57.0169 	 -60.6807 	 
C 	 -130.905 	 57.9937 	 -60.2698 	 
C 	 -131.521 	 59.3208 	 -60.282 	 
C 	 -132.789 	 59.2919 	 -60.9194 	 
H 	 -129.872 	 57.7626 	 -60.057 	 
C 	 -130.839 	 60.4914 	 -59.5998 	 
H 	 -131.386 	 60.9252 	 -58.7173 	 
H 	 -130.801 	 61.4205 	 -60.2301 	 
C 	 -129.367 	 60.3156 	 -59.1319 	 
H 	 -129.27 	 59.3965 	 -58.4857 	 
H 	 -129.141 	 61.1177 	 -58.4946 	 
C 	 -128.343 	 60.2793 	 -60.3494 	 
H 	 -127.428 	 59.6774 	 -60.0723 	 
H 	 -128.08 	 61.2552 	 -60.8012 	 
H 	 -128.765 	 59.727 	 -61.2239 	 
H 	 -136.874 	 61.949 	 -62.172 	 
H 	 -131.523 	 56.0551 	 -60.8146 	 
