34

S 	 -132.969 	 57.2915 	 -64.1793 	 
C 	 -131.543 	 57.5025 	 -65.1732 	 
C 	 -130.616 	 58.3528 	 -64.5927 	 
C 	 -131.056 	 58.8566 	 -63.3575 	 
C 	 -132.303 	 58.3363 	 -62.9353 	 
H 	 -130.489 	 59.5297 	 -62.6602 	 
C 	 -129.192 	 58.6879 	 -65.091 	 
H 	 -128.96 	 59.6007 	 -64.6456 	 
H 	 -129.296 	 58.7693 	 -66.1899 	 
C 	 -128.196 	 57.5586 	 -64.7945 	 
H 	 -128.554 	 56.6694 	 -65.2653 	 
H 	 -127.281 	 57.8076 	 -65.3879 	 
C 	 -127.755 	 57.3132 	 -63.3207 	 
H 	 -127.201 	 58.1849 	 -63.0858 	 
H 	 -128.597 	 57.2165 	 -62.5986 	 
H 	 -127.119 	 56.4165 	 -63.2207 	 
S 	 -134.012 	 59.8488 	 -61.4848 	 
C 	 -134.297 	 59.6238 	 -59.7643 	 
C 	 -133.497 	 58.5616 	 -59.3223 	 
C 	 -132.803 	 57.9335 	 -60.4125 	 
C 	 -132.968 	 58.5102 	 -61.6542 	 
H 	 -133.547 	 58.3628 	 -58.2659 	 
C 	 -132.007 	 56.6811 	 -60.1873 	 
H 	 -131.98 	 56.4523 	 -59.1113 	 
H 	 -130.955 	 56.9284 	 -60.4957 	 
C 	 -132.556 	 55.4273 	 -60.8956 	 
H 	 -132.058 	 54.5979 	 -60.4097 	 
H 	 -132.206 	 55.3621 	 -61.9094 	 
C 	 -134.034 	 55.1121 	 -60.7537 	 
H 	 -134.332 	 54.2089 	 -61.1221 	 
H 	 -134.54 	 55.7647 	 -61.5 	 
H 	 -134.476 	 55.306 	 -59.7883 	 
H 	 -131.36 	 56.9129 	 -66.0222 	 
H 	 -135.052 	 60.1961 	 -59.2294 	 
