34

S 	 -105.976 	 20.2881 	 -109.241 	 
C 	 -104.508 	 20.2676 	 -108.247 	 
C 	 -103.513 	 19.4252 	 -108.829 	 
C 	 -103.939 	 19.027 	 -110.134 	 
C 	 -105.117 	 19.5771 	 -110.575 	 
H 	 -103.446 	 18.3615 	 -110.841 	 
C 	 -102.192 	 19.0073 	 -108.219 	 
H 	 -101.572 	 18.8743 	 -109.097 	 
H 	 -102.25 	 18.0502 	 -107.821 	 
C 	 -101.603 	 19.9642 	 -107.192 	 
H 	 -102.262 	 20.0662 	 -106.365 	 
H 	 -100.648 	 19.593 	 -106.784 	 
C 	 -101.273 	 21.3512 	 -107.737 	 
H 	 -102.181 	 21.8163 	 -107.991 	 
H 	 -100.825 	 21.9825 	 -107.002 	 
H 	 -100.607 	 21.339 	 -108.66 	 
S 	 -107.039 	 18.2456 	 -112.045 	 
C 	 -106.974 	 18.2904 	 -113.807 	 
C 	 -105.995 	 19.1729 	 -114.206 	 
C 	 -105.377 	 19.8942 	 -113.117 	 
C 	 -105.724 	 19.3917 	 -111.871 	 
H 	 -105.753 	 19.2752 	 -115.298 	 
C 	 -104.304 	 20.9651 	 -113.435 	 
H 	 -103.901 	 20.6126 	 -114.379 	 
H 	 -103.513 	 20.8303 	 -112.695 	 
C 	 -104.853 	 22.3898 	 -113.533 	 
H 	 -105.735 	 22.4851 	 -114.243 	 
H 	 -104.073 	 23.0903 	 -113.829 	 
C 	 -105.363 	 22.8999 	 -112.235 	 
H 	 -106.287 	 22.4692 	 -111.875 	 
H 	 -105.459 	 23.9752 	 -112.382 	 
H 	 -104.688 	 22.7507 	 -111.382 	 
H 	 -104.434 	 20.526 	 -107.247 	 
H 	 -107.583 	 17.6732 	 -114.467 	 
