34

S 	 -116.209 	 16.9105 	 -106.962 	 
C 	 -116.022 	 18.5265 	 -106.454 	 
C 	 -116.706 	 19.3815 	 -107.333 	 
C 	 -117.205 	 18.6621 	 -108.495 	 
C 	 -117.007 	 17.3327 	 -108.472 	 
H 	 -117.942 	 18.9835 	 -109.223 	 
C 	 -116.866 	 20.9028 	 -107.181 	 
H 	 -117.119 	 21.0864 	 -106.128 	 
H 	 -117.686 	 21.2799 	 -107.693 	 
C 	 -115.587 	 21.6287 	 -107.593 	 
H 	 -114.691 	 21.0365 	 -107.37 	 
H 	 -115.582 	 21.7628 	 -108.754 	 
C 	 -115.297 	 23.0024 	 -106.89 	 
H 	 -114.394 	 23.2971 	 -107.347 	 
H 	 -115.99 	 23.7601 	 -107.243 	 
H 	 -115.259 	 22.9016 	 -105.777 	 
S 	 -118.416 	 14.9892 	 -108.546 	 
C 	 -119.014 	 14.2925 	 -110.046 	 
C 	 -118.767 	 15.1776 	 -111.099 	 
C 	 -117.842 	 16.2093 	 -110.721 	 
C 	 -117.675 	 16.3474 	 -109.347 	 
H 	 -119.161 	 15.0633 	 -112.059 	 
C 	 -117.372 	 17.1647 	 -111.808 	 
H 	 -117.311 	 18.1234 	 -111.327 	 
H 	 -118.164 	 17.292 	 -112.624 	 
C 	 -116.038 	 16.7743 	 -112.496 	 
H 	 -116.191 	 15.8745 	 -113.113 	 
H 	 -115.326 	 16.1427 	 -111.963 	 
C 	 -115.108 	 17.8578 	 -113.128 	 
H 	 -114.542 	 17.327 	 -113.866 	 
H 	 -114.509 	 18.4572 	 -112.388 	 
H 	 -115.719 	 18.5653 	 -113.728 	 
H 	 -115.46 	 18.8457 	 -105.553 	 
H 	 -119.803 	 13.5408 	 -110.242 	 
