34

S 	 -106.269 	 57.0577 	 -96.8046 	 
C 	 -104.881 	 57.1092 	 -95.7492 	 
C 	 -104.188 	 55.9464 	 -95.9025 	 
C 	 -104.632 	 55.1121 	 -96.964 	 
C 	 -105.79 	 55.578 	 -97.5693 	 
H 	 -104.23 	 54.2241 	 -97.2985 	 
C 	 -102.962 	 55.5634 	 -95.1092 	 
H 	 -102.113 	 56.1931 	 -95.4393 	 
H 	 -102.597 	 54.5505 	 -95.4631 	 
C 	 -103.011 	 55.5618 	 -93.5499 	 
H 	 -101.997 	 55.31 	 -93.2247 	 
H 	 -103.216 	 56.5254 	 -93.1824 	 
C 	 -104.007 	 54.57 	 -92.9483 	 
H 	 -104.02 	 54.6758 	 -91.8831 	 
H 	 -105.039 	 54.7931 	 -93.199 	 
H 	 -103.86 	 53.5493 	 -93.2894 	 
S 	 -105.289 	 54.6202 	 -100.121 	 
C 	 -106.611 	 54.0031 	 -101.131 	 
C 	 -107.801 	 54.0608 	 -100.44 	 
C 	 -107.698 	 54.6115 	 -99.1071 	 
C 	 -106.402 	 54.9868 	 -98.7914 	 
H 	 -108.65 	 53.6375 	 -100.925 	 
C 	 -108.776 	 54.5245 	 -98.0912 	 
H 	 -109.798 	 54.7526 	 -98.5022 	 
H 	 -108.579 	 55.305 	 -97.3926 	 
C 	 -108.695 	 53.1509 	 -97.3951 	 
H 	 -107.662 	 52.8934 	 -97.1228 	 
H 	 -109.075 	 52.4074 	 -98.1322 	 
C 	 -109.445 	 53.1283 	 -96.0591 	 
H 	 -109.499 	 52.0959 	 -95.7038 	 
H 	 -110.504 	 53.5015 	 -96.0543 	 
H 	 -109.02 	 53.827 	 -95.3415 	 
H 	 -104.575 	 57.9268 	 -95.1632 	 
H 	 -106.486 	 53.7386 	 -102.154 	 
