34

S 	 -87.2009 	 -7.53097 	 -60.1537 	 
C 	 -86.8189 	 -5.94414 	 -60.8791 	 
C 	 -85.7743 	 -5.30231 	 -60.1515 	 
C 	 -85.2064 	 -6.19086 	 -59.1781 	 
C 	 -85.7723 	 -7.41399 	 -59.0615 	 
H 	 -84.2998 	 -6.05253 	 -58.6564 	 
C 	 -85.1272 	 -3.96782 	 -60.486 	 
H 	 -84.9595 	 -3.57078 	 -59.5204 	 
H 	 -85.8126 	 -3.2875 	 -60.9654 	 
C 	 -83.5948 	 -3.92711 	 -60.8363 	 
H 	 -83.2333 	 -2.91915 	 -60.9086 	 
H 	 -83.0435 	 -4.39963 	 -60.0261 	 
C 	 -83.2948 	 -4.6406 	 -62.115 	 
H 	 -83.9393 	 -4.37493 	 -62.9438 	 
H 	 -82.4036 	 -4.4104 	 -62.6654 	 
H 	 -83.2084 	 -5.6616 	 -62.0177 	 
S 	 -84.9005 	 -10.0084 	 -59.2312 	 
C 	 -84.1936 	 -10.7438 	 -57.7899 	 
C 	 -84.0267 	 -9.83508 	 -56.7945 	 
C 	 -84.6376 	 -8.57856 	 -57.0863 	 
C 	 -85.2784 	 -8.59146 	 -58.3903 	 
H 	 -83.6323 	 -10.0439 	 -55.8228 	 
C 	 -84.7001 	 -7.44616 	 -56.1061 	 
H 	 -85.6309 	 -6.89981 	 -56.3254 	 
H 	 -83.9637 	 -6.77551 	 -56.5784 	 
C 	 -84.4425 	 -7.58885 	 -54.5343 	 
H 	 -84.0092 	 -6.62492 	 -54.0894 	 
H 	 -83.6142 	 -8.27931 	 -54.5399 	 
C 	 -85.5317 	 -8.18855 	 -53.6545 	 
H 	 -85.4681 	 -7.79516 	 -52.6769 	 
H 	 -85.3585 	 -9.3093 	 -53.632 	 
H 	 -86.592 	 -7.93247 	 -54.0321 	 
H 	 -87.3024 	 -5.46945 	 -61.7589 	 
H 	 -83.7188 	 -11.7315 	 -57.8779 	 
