34

S 	 -138.048 	 0.291744 	 5.64848 	 
C 	 -137.401 	 -0.602466 	 4.28501 	 
C 	 -136.344 	 0.105917 	 3.70023 	 
C 	 -136.072 	 1.32133 	 4.38775 	 
C 	 -136.821 	 1.53612 	 5.50114 	 
H 	 -135.376 	 2.03648 	 4.09775 	 
C 	 -135.564 	 -0.280616 	 2.49082 	 
H 	 -135.409 	 -1.3603 	 2.53113 	 
H 	 -134.627 	 0.285244 	 2.52007 	 
C 	 -136.192 	 0.0402057 	 1.05557 	 
H 	 -137.19 	 -0.512458 	 1.03799 	 
H 	 -136.413 	 1.04385 	 0.887022 	 
C 	 -135.392 	 -0.481895 	 -0.116467 	 
H 	 -134.5 	 0.17717 	 -0.143508 	 
H 	 -135.083 	 -1.52097 	 0.123284 	 
H 	 -135.888 	 -0.363098 	 -1.04866 	 
S 	 -137.842 	 4.11977 	 5.74737 	 
C 	 -137.354 	 5.03781 	 7.16629 	 
C 	 -136.388 	 4.36213 	 7.87022 	 
C 	 -136.049 	 3.08802 	 7.41617 	 
C 	 -136.809 	 2.78412 	 6.28621 	 
H 	 -135.99 	 4.74833 	 8.79559 	 
C 	 -134.902 	 2.27554 	 8.04011 	 
H 	 -135.115 	 1.26571 	 7.87166 	 
H 	 -135.074 	 2.19618 	 9.0869 	 
C 	 -133.436 	 2.56064 	 7.64426 	 
H 	 -132.856 	 1.95012 	 8.31522 	 
H 	 -133.175 	 3.59923 	 8.02754 	 
C 	 -133.053 	 2.2734 	 6.20269 	 
H 	 -133.634 	 2.94345 	 5.56797 	 
H 	 -133.362 	 1.29902 	 5.8583 	 
H 	 -131.955 	 2.36829 	 5.99799 	 
H 	 -137.83 	 -1.43821 	 3.8096 	 
H 	 -137.63 	 6.09067 	 7.50155 	 
