34

S 	 -71.2969 	 3.90484 	 -70.965 	 
C 	 -71.4528 	 5.32143 	 -69.8859 	 
C 	 -72.3206 	 5.06786 	 -68.8201 	 
C 	 -72.7206 	 3.67615 	 -68.8244 	 
C 	 -72.5294 	 3.02076 	 -70.0202 	 
H 	 -73.3263 	 3.09024 	 -68.0959 	 
C 	 -72.5399 	 5.9981 	 -67.6648 	 
H 	 -71.6286 	 6.06885 	 -67.1109 	 
H 	 -73.316 	 5.46972 	 -67.1789 	 
C 	 -72.9267 	 7.4221 	 -67.9909 	 
H 	 -72.0654 	 7.9135 	 -68.517 	 
H 	 -73.7488 	 7.50481 	 -68.731 	 
C 	 -73.2905 	 8.13284 	 -66.751 	 
H 	 -74.372 	 7.93724 	 -66.5338 	 
H 	 -72.7075 	 7.84801 	 -65.9172 	 
H 	 -73.3515 	 9.17157 	 -66.8864 	 
S 	 -71.5655 	 0.643647 	 -70.867 	 
C 	 -72.5915 	 -0.738749 	 -70.9808 	 
C 	 -73.8887 	 -0.43761 	 -70.7108 	 
C 	 -74.0766 	 0.884672 	 -70.2775 	 
C 	 -72.8816 	 1.64766 	 -70.3171 	 
H 	 -74.6567 	 -1.11109 	 -70.8246 	 
C 	 -75.426 	 1.34565 	 -69.8458 	 
H 	 -75.4043 	 2.41251 	 -69.9029 	 
H 	 -75.5127 	 1.36064 	 -68.7508 	 
C 	 -76.7665 	 0.744455 	 -70.3549 	 
H 	 -76.9184 	 -0.269521 	 -70.0396 	 
H 	 -76.6934 	 0.767515 	 -71.4391 	 
C 	 -78.0645 	 1.49392 	 -70.0179 	 
H 	 -78.8926 	 1.12129 	 -70.5546 	 
H 	 -77.9653 	 2.522 	 -70.2114 	 
H 	 -78.3977 	 1.34812 	 -68.9877 	 
H 	 -71.1518 	 6.32776 	 -69.9302 	 
H 	 -72.0993 	 -1.61982 	 -71.3545 	 
