34

S 	 -89.3882 	 -5.41314 	 -112.026 	 
C 	 -88.5396 	 -5.0016 	 -113.481 	 
C 	 -89.2864 	 -4.21305 	 -114.341 	 
C 	 -90.6889 	 -4.1849 	 -113.986 	 
C 	 -90.9511 	 -4.7683 	 -112.776 	 
H 	 -91.3918 	 -3.79856 	 -114.623 	 
C 	 -88.7949 	 -3.7214 	 -115.666 	 
H 	 -88.0222 	 -4.41826 	 -115.975 	 
H 	 -88.2097 	 -2.78342 	 -115.601 	 
C 	 -89.7552 	 -3.84319 	 -116.816 	 
H 	 -90.0463 	 -4.87089 	 -116.77 	 
H 	 -90.6545 	 -3.19844 	 -116.795 	 
C 	 -89.0686 	 -3.49856 	 -118.121 	 
H 	 -88.54 	 -2.54094 	 -118.204 	 
H 	 -88.3538 	 -4.30146 	 -118.35 	 
H 	 -89.7389 	 -3.48512 	 -119.007 	 
S 	 -92.446 	 -6.01432 	 -110.762 	 
C 	 -94.0653 	 -5.56692 	 -110.512 	 
C 	 -94.4116 	 -4.40187 	 -111.198 	 
C 	 -93.3885 	 -4.04276 	 -112.099 	 
C 	 -92.2264 	 -4.77958 	 -111.967 	 
H 	 -95.3961 	 -3.95046 	 -111.017 	 
C 	 -93.4948 	 -2.91906 	 -113.035 	 
H 	 -92.5173 	 -2.52011 	 -113.166 	 
H 	 -94.0941 	 -2.07143 	 -112.609 	 
C 	 -94.1505 	 -3.23631 	 -114.377 	 
H 	 -93.5873 	 -3.90303 	 -114.947 	 
H 	 -94.1604 	 -2.37263 	 -115.014 	 
C 	 -95.5461 	 -3.87676 	 -114.325 	 
H 	 -95.9505 	 -4.1703 	 -115.26 	 
H 	 -96.2471 	 -3.07145 	 -113.925 	 
H 	 -95.5533 	 -4.74351 	 -113.7 	 
H 	 -87.4504 	 -5.09099 	 -113.486 	 
H 	 -94.7362 	 -5.92768 	 -109.768 	 
