34

S 	 -56.1543 	 22.6182 	 25.9783 	 
C 	 -55.2513 	 21.1606 	 26.4415 	 
C 	 -55.9872 	 20.0064 	 26.1256 	 
C 	 -57.274 	 20.3544 	 25.5358 	 
C 	 -57.5108 	 21.6827 	 25.4294 	 
H 	 -57.996 	 19.6181 	 25.2772 	 
C 	 -55.4723 	 18.6003 	 26.2902 	 
H 	 -56.0311 	 18.0441 	 26.9997 	 
H 	 -54.5362 	 18.6136 	 26.7323 	 
C 	 -55.1287 	 17.8631 	 25.0127 	 
H 	 -56.0225 	 17.7142 	 24.3806 	 
H 	 -54.3765 	 18.4723 	 24.4429 	 
C 	 -54.5901 	 16.4902 	 25.265 	 
H 	 -53.5435 	 16.4556 	 25.7145 	 
H 	 -55.2277 	 15.7997 	 25.8948 	 
H 	 -54.5021 	 15.9709 	 24.2417 	 
S 	 -59.8049 	 23.209 	 25.4883 	 
C 	 -60.5533 	 23.6691 	 23.9557 	 
C 	 -60.031 	 22.9811 	 22.9073 	 
C 	 -58.9165 	 22.1726 	 23.3004 	 
C 	 -58.5744 	 22.2977 	 24.6194 	 
H 	 -60.4898 	 23.0386 	 21.9341 	 
C 	 -58.1112 	 21.2416 	 22.3113 	 
H 	 -58.083 	 20.3005 	 22.8397 	 
H 	 -57.0966 	 21.5655 	 22.2784 	 
C 	 -58.5653 	 21.0793 	 20.9038 	 
H 	 -59.6031 	 20.8568 	 20.784 	 
H 	 -57.8538 	 20.2539 	 20.6344 	 
C 	 -58.1503 	 22.3012 	 19.9614 	 
H 	 -58.5497 	 22.0276 	 18.9958 	 
H 	 -57.073 	 22.3513 	 20.036 	 
H 	 -58.5773 	 23.2504 	 20.3341 	 
H 	 -54.2585 	 21.0315 	 26.8379 	 
H 	 -61.5063 	 24.2391 	 23.9721 	 
