34

S 	 -138.926 	 6.21697 	 2.88646 	 
C 	 -139.12 	 7.06963 	 1.43291 	 
C 	 -138.111 	 6.80436 	 0.556129 	 
C 	 -137.175 	 5.85404 	 1.08604 	 
C 	 -137.531 	 5.44792 	 2.36062 	 
H 	 -136.294 	 5.46971 	 0.642373 	 
C 	 -138.004 	 7.5436 	 -0.741057 	 
H 	 -137.921 	 8.5764 	 -0.596139 	 
H 	 -138.865 	 7.3797 	 -1.38925 	 
C 	 -136.808 	 7.20476 	 -1.59612 	 
H 	 -136.68 	 7.99292 	 -2.31237 	 
H 	 -135.934 	 7.37845 	 -0.936068 	 
C 	 -136.777 	 5.84307 	 -2.43124 	 
H 	 -135.942 	 5.872 	 -3.12439 	 
H 	 -136.581 	 5.06213 	 -1.73568 	 
H 	 -137.676 	 5.62042 	 -2.98433 	 
S 	 -135.771 	 5.12454 	 4.39923 	 
C 	 -135.309 	 3.55272 	 4.89575 	 
C 	 -135.611 	 2.66618 	 3.88166 	 
C 	 -136.503 	 3.15535 	 2.88141 	 
C 	 -136.783 	 4.51522 	 3.17789 	 
H 	 -135.364 	 1.64548 	 4.01765 	 
C 	 -137.115 	 2.39902 	 1.71839 	 
H 	 -136.339 	 2.53406 	 0.978858 	 
H 	 -138.054 	 2.90329 	 1.52143 	 
C 	 -137.371 	 0.893803 	 1.86514 	 
H 	 -138.046 	 0.630579 	 1.05929 	 
H 	 -137.687 	 0.707066 	 2.83635 	 
C 	 -136.182 	 0.0232288 	 1.45773 	 
H 	 -135.902 	 0.407879 	 0.468592 	 
H 	 -136.371 	 -1.03462 	 1.31548 	 
H 	 -135.349 	 0.154973 	 2.11424 	 
H 	 -139.968 	 7.7581 	 1.28658 	 
H 	 -134.536 	 3.34422 	 5.72702 	 
