34

S 	 -55.6786 	 15.3518 	 -87.9012 	 
C 	 -55.2735 	 15.5495 	 -89.6047 	 
C 	 -56.1324 	 16.4825 	 -90.2062 	 
C 	 -57.0298 	 17.0275 	 -89.2818 	 
C 	 -56.9657 	 16.4907 	 -87.9937 	 
H 	 -57.8021 	 17.6314 	 -89.4756 	 
C 	 -56.2645 	 16.909 	 -91.6613 	 
H 	 -57.2892 	 16.6983 	 -91.8633 	 
H 	 -55.6357 	 16.3591 	 -92.3298 	 
C 	 -55.9519 	 18.4399 	 -91.7882 	 
H 	 -56.7138 	 19.0652 	 -91.2355 	 
H 	 -55.049 	 18.7791 	 -91.27 	 
C 	 -55.9913 	 18.9241 	 -93.1929 	 
H 	 -56.9057 	 18.5351 	 -93.6818 	 
H 	 -55.8366 	 19.9672 	 -93.1632 	 
H 	 -55.2136 	 18.4595 	 -93.7583 	 
S 	 -58.7195 	 15.5172 	 -86.0528 	 
C 	 -59.2014 	 16.5697 	 -84.7703 	 
C 	 -58.8359 	 17.8893 	 -84.994 	 
C 	 -58.0405 	 18.0438 	 -86.1898 	 
C 	 -57.8186 	 16.8043 	 -86.8403 	 
H 	 -59.1505 	 18.6395 	 -84.3046 	 
C 	 -57.4455 	 19.3719 	 -86.5911 	 
H 	 -56.5314 	 19.1385 	 -87.2013 	 
H 	 -57.0027 	 20.0005 	 -85.6844 	 
C 	 -58.348 	 20.2582 	 -87.4373 	 
H 	 -59.0383 	 20.4855 	 -86.6379 	 
H 	 -58.6176 	 19.772 	 -88.3045 	 
C 	 -57.7931 	 21.6408 	 -87.758 	 
H 	 -57.6394 	 22.1944 	 -86.8379 	 
H 	 -58.567 	 22.2222 	 -88.3047 	 
H 	 -56.9573 	 21.6661 	 -88.3524 	 
H 	 -54.4774 	 15.0418 	 -90.0735 	 
H 	 -59.8972 	 16.3517 	 -83.9669 	 
