34

S 	 22.2358 	 -9.14899 	 -113.675 	 
C 	 23.9178 	 -9.2739 	 -113.456 	 
C 	 24.563 	 -8.12496 	 -113.874 	 
C 	 23.6864 	 -7.21836 	 -114.632 	 
C 	 22.3908 	 -7.73758 	 -114.747 	 
H 	 23.9962 	 -6.29656 	 -115.178 	 
C 	 26.0581 	 -7.90273 	 -113.822 	 
H 	 26.4232 	 -6.86586 	 -113.454 	 
H 	 26.4336 	 -7.96038 	 -114.829 	 
C 	 26.927 	 -8.98112 	 -113.25 	 
H 	 26.6057 	 -9.16033 	 -112.196 	 
H 	 26.9358 	 -9.96178 	 -113.78 	 
C 	 28.3537 	 -8.46655 	 -113.035 	 
H 	 28.9861 	 -9.24035 	 -112.703 	 
H 	 28.7601 	 -8.195 	 -113.99 	 
H 	 28.2581 	 -7.71814 	 -112.25 	 
S 	 21.0878 	 -8.31899 	 -117.067 	 
C 	 19.6785 	 -7.41786 	 -117.568 	 
C 	 19.4946 	 -6.33756 	 -116.746 	 
C 	 20.4802 	 -6.28747 	 -115.694 	 
C 	 21.3192 	 -7.37474 	 -115.597 	 
H 	 18.6266 	 -5.67448 	 -116.931 	 
C 	 20.4342 	 -5.09439 	 -114.626 	 
H 	 20.9684 	 -5.25583 	 -113.706 	 
H 	 19.3925 	 -4.99241 	 -114.338 	 
C 	 20.9766 	 -3.74302 	 -115.109 	 
H 	 20.261 	 -3.28708 	 -115.692 	 
H 	 21.8511 	 -3.8047 	 -115.772 	 
C 	 21.3389 	 -2.71532 	 -113.998 	 
H 	 22.2661 	 -3.04373 	 -113.454 	 
H 	 20.5978 	 -2.50059 	 -113.34 	 
H 	 21.631 	 -1.81785 	 -114.489 	 
H 	 24.4345 	 -9.98573 	 -112.881 	 
H 	 18.9065 	 -7.63765 	 -118.315 	 
