34

S 	 -29.9593 	 16.3994 	 8.06159 	 
C 	 -31.4778 	 15.5633 	 8.0823 	 
C 	 -31.9997 	 15.3412 	 9.35824 	 
C 	 -31.1721 	 15.8844 	 10.3703 	 
C 	 -29.9781 	 16.4339 	 9.83912 	 
H 	 -31.362 	 15.9165 	 11.3809 	 
C 	 -33.414 	 14.8802 	 9.66916 	 
H 	 -33.9051 	 14.7368 	 8.67686 	 
H 	 -33.8763 	 15.7295 	 10.2078 	 
C 	 -33.5554 	 13.585 	 10.5368 	 
H 	 -33.172 	 12.7337 	 10.0083 	 
H 	 -32.9599 	 13.7628 	 11.4322 	 
C 	 -34.9913 	 13.2111 	 10.9438 	 
H 	 -35.547 	 14.0716 	 11.4188 	 
H 	 -35.4234 	 12.9007 	 10.0361 	 
H 	 -35.0112 	 12.3393 	 11.5202 	 
S 	 -27.3775 	 15.826 	 10.5072 	 
C 	 -26.5123 	 16.7071 	 11.6844 	 
C 	 -27.3442 	 17.6909 	 12.2497 	 
C 	 -28.6505 	 17.8103 	 11.6387 	 
C 	 -28.8417 	 16.8275 	 10.6563 	 
H 	 -26.9923 	 18.3204 	 13.0421 	 
C 	 -29.6361 	 18.8432 	 12.1149 	 
H 	 -30.5623 	 18.8131 	 11.5455 	 
H 	 -29.1968 	 19.7968 	 11.8796 	 
C 	 -29.902 	 18.7544 	 13.7155 	 
H 	 -29.0932 	 18.3714 	 14.2752 	 
H 	 -30.7562 	 18.0478 	 13.8596 	 
C 	 -30.414 	 20.0386 	 14.4164 	 
H 	 -29.7136 	 20.9051 	 14.3368 	 
H 	 -30.6838 	 19.8734 	 15.4333 	 
H 	 -31.3705 	 20.382 	 14.0622 	 
H 	 -31.9373 	 15.2009 	 7.20903 	 
H 	 -25.5317 	 16.3757 	 11.9401 	 
