34

S 	 32.4209 	 -31.3088 	 -110.789 	 
C 	 31.3192 	 -31.5663 	 -109.437 	 
C 	 31.735 	 -30.7634 	 -108.367 	 
C 	 32.7985 	 -29.8844 	 -108.688 	 
C 	 33.4211 	 -30.2117 	 -109.893 	 
H 	 33.197 	 -29.1907 	 -108.079 	 
C 	 31.0825 	 -30.8554 	 -107.007 	 
H 	 30.4048 	 -31.6877 	 -106.981 	 
H 	 30.5344 	 -29.9297 	 -107.065 	 
C 	 31.9453 	 -31.0162 	 -105.739 	 
H 	 32.6943 	 -30.2759 	 -105.603 	 
H 	 31.3606 	 -30.9784 	 -104.834 	 
C 	 32.7179 	 -32.2465 	 -105.677 	 
H 	 32.0747 	 -33.1415 	 -105.836 	 
H 	 33.5958 	 -32.2701 	 -106.378 	 
H 	 33.1222 	 -32.4402 	 -104.709 	 
S 	 34.4841 	 -28.9763 	 -112.172 	 
C 	 35.9819 	 -28.0617 	 -111.805 	 
C 	 36.6145 	 -28.4352 	 -110.672 	 
C 	 35.7952 	 -29.2488 	 -109.887 	 
C 	 34.5674 	 -29.6209 	 -110.492 	 
H 	 37.6439 	 -28.0265 	 -110.463 	 
C 	 36.2816 	 -29.8249 	 -108.602 	 
H 	 35.4908 	 -30.4885 	 -108.253 	 
H 	 36.6096 	 -29.0465 	 -107.929 	 
C 	 37.4797 	 -30.7045 	 -108.798 	 
H 	 38.3049 	 -30.1043 	 -109.163 	 
H 	 37.2567 	 -31.4978 	 -109.509 	 
C 	 37.8757 	 -31.522 	 -107.577 	 
H 	 37.0361 	 -32.0808 	 -107.244 	 
H 	 38.1587 	 -30.8242 	 -106.778 	 
H 	 38.6072 	 -32.3274 	 -107.793 	 
H 	 30.4974 	 -32.1897 	 -109.361 	 
H 	 36.5556 	 -27.5565 	 -112.539 	 
