34

S 	 -137.838 	 70.1335 	 -57.2651 	 
C 	 -136.521 	 69.2071 	 -57.9242 	 
C 	 -135.652 	 68.7547 	 -56.9341 	 
C 	 -136.138 	 69.0578 	 -55.6121 	 
C 	 -137.282 	 69.8875 	 -55.6137 	 
H 	 -135.595 	 69.0079 	 -54.6809 	 
C 	 -134.317 	 68.1429 	 -57.2149 	 
H 	 -133.494 	 68.4993 	 -56.6014 	 
H 	 -134.059 	 68.4425 	 -58.2463 	 
C 	 -134.384 	 66.542 	 -57.1475 	 
H 	 -135.107 	 66.0233 	 -57.7981 	 
H 	 -133.365 	 66.1604 	 -57.4287 	 
C 	 -134.32 	 65.9292 	 -55.797 	 
H 	 -135.336 	 66.0002 	 -55.2981 	 
H 	 -134.05 	 64.8714 	 -55.8646 	 
H 	 -133.63 	 66.5174 	 -55.2614 	 
S 	 -137.856 	 72.4866 	 -54.5901 	 
C 	 -138.168 	 72.6274 	 -52.8355 	 
C 	 -138.248 	 71.3653 	 -52.2335 	 
C 	 -138.043 	 70.3246 	 -53.1618 	 
C 	 -137.729 	 70.7383 	 -54.4469 	 
H 	 -138.489 	 71.2465 	 -51.2205 	 
C 	 -138.16 	 68.8127 	 -52.7703 	 
H 	 -138.482 	 68.7529 	 -51.7286 	 
H 	 -137.16 	 68.4237 	 -52.9088 	 
C 	 -139.143 	 67.9756 	 -53.5934 	 
H 	 -138.889 	 67.9588 	 -54.6424 	 
H 	 -140.069 	 68.5643 	 -53.5354 	 
C 	 -139.58 	 66.6288 	 -53.0373 	 
H 	 -138.909 	 65.9315 	 -53.424 	 
H 	 -140.531 	 66.2548 	 -53.2822 	 
H 	 -139.463 	 66.5837 	 -51.9204 	 
H 	 -136.392 	 69.0389 	 -58.9315 	 
H 	 -138.253 	 73.5148 	 -52.2859 	 
