34

S 	 -42.9983 	 -49.0669 	 -70.5822 	 
C 	 -42.1913 	 -49.6548 	 -69.0935 	 
C 	 -41.6141 	 -50.8939 	 -69.313 	 
C 	 -42.0048 	 -51.4607 	 -70.6092 	 
C 	 -42.7786 	 -50.5993 	 -71.3863 	 
H 	 -41.6648 	 -52.3726 	 -70.949 	 
C 	 -40.6742 	 -51.553 	 -68.394 	 
H 	 -40.5234 	 -50.8398 	 -67.5165 	 
H 	 -39.7247 	 -51.5698 	 -68.9997 	 
C 	 -41.2542 	 -52.9539 	 -67.9869 	 
H 	 -41.9722 	 -52.749 	 -67.2407 	 
H 	 -41.7829 	 -53.4415 	 -68.8024 	 
C 	 -40.2584 	 -53.8675 	 -67.2763 	 
H 	 -39.8626 	 -53.3743 	 -66.3792 	 
H 	 -40.6451 	 -54.8667 	 -67.0754 	 
H 	 -39.5654 	 -54.0184 	 -68.1042 	 
S 	 -42.2414 	 -49.9785 	 -73.9452 	 
C 	 -43.2422 	 -50.6895 	 -75.1852 	 
C 	 -44.0726 	 -51.6626 	 -74.7661 	 
C 	 -44.0933 	 -51.6797 	 -73.3588 	 
C 	 -43.1289 	 -50.8362 	 -72.7545 	 
H 	 -44.6633 	 -52.1653 	 -75.4783 	 
C 	 -45.1125 	 -52.5072 	 -72.558 	 
H 	 -45.9372 	 -52.5079 	 -73.186 	 
H 	 -45.4796 	 -51.966 	 -71.6246 	 
C 	 -44.6549 	 -53.9321 	 -72.2224 	 
H 	 -43.8075 	 -53.8997 	 -71.4131 	 
H 	 -44.2165 	 -54.4466 	 -73.082 	 
C 	 -45.884 	 -54.6933 	 -71.6181 	 
H 	 -46.6786 	 -54.8213 	 -72.3045 	 
H 	 -46.2663 	 -54.1749 	 -70.8053 	 
H 	 -45.5447 	 -55.7177 	 -71.2498 	 
H 	 -42.221 	 -49.0263 	 -68.2385 	 
H 	 -43.2221 	 -50.2609 	 -76.1394 	 
