34

S 	 -64.77 	 16.33 	 -104.331 	 
C 	 -65.1421 	 14.693 	 -103.893 	 
C 	 -64.4808 	 13.8422 	 -104.724 	 
C 	 -63.7813 	 14.5029 	 -105.802 	 
C 	 -63.8239 	 15.8841 	 -105.744 	 
H 	 -63.1671 	 14.0432 	 -106.574 	 
C 	 -64.5797 	 12.324 	 -104.649 	 
H 	 -65.5442 	 12.1205 	 -104.09 	 
H 	 -63.8622 	 11.8806 	 -103.931 	 
C 	 -64.4563 	 11.5675 	 -106.014 	 
H 	 -65.0481 	 12.1511 	 -106.702 	 
H 	 -63.4388 	 11.7004 	 -106.339 	 
C 	 -64.6433 	 10.0898 	 -105.785 	 
H 	 -65.5728 	 9.98853 	 -105.352 	 
H 	 -64.6262 	 9.49485 	 -106.711 	 
H 	 -64.0579 	 9.61853 	 -105.011 	 
S 	 -62.1914 	 18.0964 	 -105.734 	 
C 	 -61.6627 	 18.7306 	 -107.296 	 
C 	 -62.2824 	 18.1081 	 -108.334 	 
C 	 -63.0723 	 16.9885 	 -107.92 	 
C 	 -63.0415 	 16.8348 	 -106.554 	 
H 	 -62.1982 	 18.5223 	 -109.323 	 
C 	 -63.8846 	 16.127 	 -108.893 	 
H 	 -64.3618 	 16.8501 	 -109.474 	 
H 	 -64.7396 	 15.6572 	 -108.376 	 
C 	 -63.1468 	 15.0715 	 -109.677 	 
H 	 -63.1231 	 14.0993 	 -109.151 	 
H 	 -62.0539 	 15.2534 	 -109.734 	 
C 	 -63.733 	 14.9002 	 -111.028 	 
H 	 -63.5246 	 15.8461 	 -111.66 	 
H 	 -64.8153 	 14.6595 	 -111.039 	 
H 	 -63.1937 	 14.0395 	 -111.461 	 
H 	 -65.8294 	 14.3758 	 -103.122 	 
H 	 -61.1097 	 19.6502 	 -107.496 	 
