34

S 	 -130.705 	 59.388 	 -61.9218 	 
C 	 -129.025 	 59.8306 	 -62.4479 	 
C 	 -128.188 	 59.7627 	 -61.313 	 
C 	 -128.872 	 59.1931 	 -60.1455 	 
C 	 -130.129 	 58.77 	 -60.3766 	 
H 	 -128.311 	 58.9526 	 -59.1889 	 
C 	 -126.736 	 60.2542 	 -61.3753 	 
H 	 -126.188 	 60.3567 	 -60.4298 	 
H 	 -126.669 	 61.2304 	 -61.9473 	 
C 	 -125.789 	 59.4158 	 -62.1958 	 
H 	 -126.045 	 59.393 	 -63.2578 	 
H 	 -124.796 	 59.6967 	 -62.2134 	 
C 	 -125.677 	 57.9381 	 -61.7243 	 
H 	 -125.699 	 57.8666 	 -60.62 	 
H 	 -126.635 	 57.4167 	 -61.8741 	 
H 	 -124.901 	 57.3873 	 -62.2378 	 
S 	 -132.668 	 58.96 	 -59.2592 	 
C 	 -132.968 	 57.936 	 -57.9139 	 
C 	 -132.011 	 56.9839 	 -57.6942 	 
C 	 -130.906 	 57.1045 	 -58.5925 	 
C 	 -131.058 	 58.2423 	 -59.4121 	 
H 	 -132.302 	 56.1501 	 -57.0531 	 
C 	 -129.762 	 56.0079 	 -58.6371 	 
H 	 -128.951 	 56.6089 	 -59.018 	 
H 	 -129.957 	 55.2457 	 -59.3398 	 
C 	 -129.355 	 55.3114 	 -57.3616 	 
H 	 -128.539 	 54.6555 	 -57.6001 	 
H 	 -130.105 	 54.6716 	 -56.9685 	 
C 	 -128.795 	 56.2437 	 -56.2093 	 
H 	 -129.647 	 56.7794 	 -55.789 	 
H 	 -128.06 	 56.9739 	 -56.4744 	 
H 	 -128.32 	 55.5461 	 -55.3877 	 
H 	 -128.681 	 60.3026 	 -63.3018 	 
H 	 -133.987 	 57.747 	 -57.5269 	 
