34

S 	 -37.0127 	 15.5083 	 14.7488 	 
C 	 -36.7209 	 17.1605 	 15.3857 	 
C 	 -35.8667 	 17.8457 	 14.5341 	 
C 	 -35.5643 	 17.0666 	 13.3487 	 
C 	 -36.0089 	 15.7419 	 13.3315 	 
H 	 -34.8647 	 17.4027 	 12.6122 	 
C 	 -35.4066 	 19.2512 	 14.8846 	 
H 	 -36.0292 	 19.7632 	 15.6642 	 
H 	 -35.4454 	 19.8814 	 14.0492 	 
C 	 -34.0307 	 19.2694 	 15.4426 	 
H 	 -34.0995 	 18.8128 	 16.4144 	 
H 	 -33.4457 	 18.6478 	 14.7629 	 
C 	 -33.3233 	 20.5714 	 15.5083 	 
H 	 -33.8487 	 21.1002 	 16.3453 	 
H 	 -32.288 	 20.2827 	 15.6609 	 
H 	 -33.4261 	 21.1389 	 14.5874 	 
S 	 -35.8699 	 13.0204 	 12.827 	 
C 	 -35.1216 	 12.4733 	 11.3314 	 
C 	 -34.7136 	 13.5073 	 10.5678 	 
C 	 -35.0039 	 14.7701 	 11.1141 	 
C 	 -35.6454 	 14.704 	 12.3801 	 
H 	 -34.1439 	 13.3943 	 9.65576 	 
C 	 -34.6713 	 16.0362 	 10.3642 	 
H 	 -33.9277 	 16.6164 	 10.861 	 
H 	 -35.5495 	 16.6653 	 10.295 	 
C 	 -34.2152 	 15.9202 	 8.90133 	 
H 	 -35.0606 	 15.5216 	 8.33663 	 
H 	 -33.4394 	 15.2299 	 8.7966 	 
C 	 -33.95 	 17.2273 	 8.15617 	 
H 	 -33.0646 	 17.7202 	 8.53476 	 
H 	 -34.7021 	 17.9964 	 8.26363 	 
H 	 -33.7642 	 17.0912 	 7.08844 	 
H 	 -37.13 	 17.6004 	 16.2654 	 
H 	 -34.8184 	 11.4658 	 11.0584 	 
