34

S 	 -89.0708 	 -47.3958 	 -78.1525 	 
C 	 -88.8203 	 -47.017 	 -76.5005 	 
C 	 -88.9142 	 -48.1803 	 -75.6903 	 
C 	 -89.2829 	 -49.3233 	 -76.4952 	 
C 	 -89.2797 	 -49.0973 	 -77.8462 	 
H 	 -89.279 	 -50.2993 	 -76.0674 	 
C 	 -88.7976 	 -48.2133 	 -74.1881 	 
H 	 -89.3709 	 -49.1208 	 -73.849 	 
H 	 -89.3528 	 -47.3596 	 -73.8325 	 
C 	 -87.3633 	 -48.2184 	 -73.5824 	 
H 	 -87.4019 	 -48.2439 	 -72.438 	 
H 	 -86.961 	 -49.1578 	 -74.03 	 
C 	 -86.4856 	 -47.1161 	 -74.0015 	 
H 	 -86.8544 	 -46.2183 	 -73.4855 	 
H 	 -85.4923 	 -47.2281 	 -73.6231 	 
H 	 -86.4023 	 -47.0955 	 -75.116 	 
S 	 -91.1388 	 -50.1421 	 -79.6426 	 
C 	 -90.7857 	 -51.6168 	 -80.5885 	 
C 	 -89.4785 	 -51.9994 	 -80.3841 	 
C 	 -88.7879 	 -51.1408 	 -79.3986 	 
C 	 -89.5203 	 -50.0587 	 -78.9467 	 
H 	 -89.1381 	 -52.8994 	 -80.9213 	 
C 	 -87.3285 	 -51.395 	 -78.9851 	 
H 	 -87.1752 	 -52.3432 	 -78.4608 	 
H 	 -87.1788 	 -50.6284 	 -78.1413 	 
C 	 -86.346 	 -51.1095 	 -80.0389 	 
H 	 -86.1349 	 -51.8849 	 -80.8281 	 
H 	 -85.3965 	 -51.2495 	 -79.5249 	 
C 	 -86.3978 	 -49.7524 	 -80.6803 	 
H 	 -85.5112 	 -49.5741 	 -81.294 	 
H 	 -86.5186 	 -48.9964 	 -79.8753 	 
H 	 -87.3258 	 -49.5712 	 -81.261 	 
H 	 -88.6126 	 -46.0428 	 -76.2249 	 
H 	 -91.4457 	 -52.043 	 -81.346 	 
