34

S 	 -95.7998 	 51.9482 	 -99.8668 	 
C 	 -94.9993 	 53.3097 	 -99.0822 	 
C 	 -95.7855 	 53.8436 	 -98.0602 	 
C 	 -96.9434 	 53.0368 	 -97.7661 	 
C 	 -97.1504 	 52.0209 	 -98.7397 	 
H 	 -97.575 	 53.2195 	 -96.821 	 
C 	 -95.4316 	 54.9959 	 -97.3017 	 
H 	 -96.2563 	 55.2881 	 -96.7864 	 
H 	 -94.9953 	 55.807 	 -97.9788 	 
C 	 -94.3133 	 54.5845 	 -96.3215 	 
H 	 -94.7077 	 53.7942 	 -95.6327 	 
H 	 -93.442 	 54.1161 	 -96.8632 	 
C 	 -93.7116 	 55.6986 	 -95.4947 	 
H 	 -94.4027 	 56.2461 	 -94.8087 	 
H 	 -92.9568 	 55.2057 	 -94.9279 	 
H 	 -93.2325 	 56.32 	 -96.2078 	 
S 	 -97.674 	 49.3969 	 -98.7932 	 
C 	 -99.3324 	 48.9058 	 -98.8844 	 
C 	 -100.188 	 49.9452 	 -99.0777 	 
C 	 -99.5524 	 51.1785 	 -98.8148 	 
C 	 -98.1611 	 51.0615 	 -98.7951 	 
H 	 -101.253 	 49.8207 	 -99.2907 	 
C 	 -100.329 	 52.5211 	 -98.7481 	 
H 	 -99.8343 	 53.1651 	 -98.0129 	 
H 	 -101.359 	 52.3474 	 -98.5206 	 
C 	 -100.195 	 53.1667 	 -100.092 	 
H 	 -100.797 	 52.6621 	 -100.852 	 
H 	 -99.1399 	 53.1899 	 -100.313 	 
C 	 -100.819 	 54.6729 	 -100.013 	 
H 	 -100.988 	 55.2003 	 -100.957 	 
H 	 -100.152 	 55.3853 	 -99.4391 	 
H 	 -101.797 	 54.5867 	 -99.5312 	 
H 	 -94.1054 	 53.7515 	 -99.5143 	 
H 	 -99.6172 	 47.8409 	 -98.8235 	 
