34

S 	 -107.566 	 16.8144 	 -117.975 	 
C 	 -107.576 	 15.3823 	 -117.022 	 
C 	 -106.244 	 15.1125 	 -116.587 	 
C 	 -105.404 	 16.2363 	 -116.905 	 
C 	 -105.952 	 17.2914 	 -117.589 	 
H 	 -104.36 	 16.3204 	 -116.693 	 
C 	 -105.797 	 14.0454 	 -115.685 	 
H 	 -106.411 	 13.1133 	 -115.624 	 
H 	 -105.826 	 14.52 	 -114.735 	 
C 	 -104.334 	 13.5455 	 -116.203 	 
H 	 -104.38 	 13.303 	 -117.317 	 
H 	 -103.581 	 14.3188 	 -116.086 	 
C 	 -103.755 	 12.3271 	 -115.389 	 
H 	 -103.754 	 12.6185 	 -114.347 	 
H 	 -104.313 	 11.3664 	 -115.403 	 
H 	 -102.685 	 12.2205 	 -115.783 	 
S 	 -105.444 	 19.9615 	 -117.032 	 
C 	 -104.354 	 20.8635 	 -118.122 	 
C 	 -103.966 	 20.1231 	 -119.164 	 
C 	 -104.498 	 18.8008 	 -119.145 	 
C 	 -105.264 	 18.5411 	 -118.032 	 
H 	 -103.387 	 20.5254 	 -119.968 	 
C 	 -104.194 	 17.8767 	 -120.275 	 
H 	 -103.682 	 18.3368 	 -121.122 	 
H 	 -105.147 	 17.5255 	 -120.623 	 
C 	 -103.222 	 16.7866 	 -119.989 	 
H 	 -103.775 	 15.9027 	 -119.591 	 
H 	 -102.449 	 17.1229 	 -119.254 	 
C 	 -102.32 	 16.358 	 -121.186 	 
H 	 -101.733 	 17.1124 	 -121.757 	 
H 	 -102.834 	 15.9779 	 -122.073 	 
H 	 -101.824 	 15.4327 	 -120.875 	 
H 	 -108.435 	 14.7712 	 -116.849 	 
H 	 -104.067 	 21.8784 	 -117.936 	 
