34

S 	 -43.639 	 -51.7191 	 -73.9 	 
C 	 -42.1135 	 -52.4274 	 -74.3261 	 
C 	 -41.565 	 -51.7709 	 -75.4679 	 
C 	 -42.4592 	 -50.846 	 -76.0197 	 
C 	 -43.6092 	 -50.6269 	 -75.2544 	 
H 	 -42.3438 	 -50.2713 	 -76.9323 	 
C 	 -40.2216 	 -52.1775 	 -76.0752 	 
H 	 -40.3325 	 -52.8191 	 -77.0499 	 
H 	 -39.6046 	 -52.8844 	 -75.4044 	 
C 	 -39.2906 	 -51.0144 	 -76.5364 	 
H 	 -39.8135 	 -50.5917 	 -77.2905 	 
H 	 -39.0716 	 -50.2356 	 -75.8181 	 
C 	 -37.976 	 -51.439 	 -77.3036 	 
H 	 -38.0948 	 -52.2662 	 -77.9644 	 
H 	 -37.5774 	 -50.5516 	 -77.8426 	 
H 	 -37.3052 	 -51.6915 	 -76.4411 	 
S 	 -45.1934 	 -49.4243 	 -77.1296 	 
C 	 -46.0334 	 -47.9702 	 -76.689 	 
C 	 -45.9159 	 -47.7764 	 -75.3543 	 
C 	 -45.0929 	 -48.6846 	 -74.6588 	 
C 	 -44.5294 	 -49.5438 	 -75.4853 	 
H 	 -46.4542 	 -46.8726 	 -75.0068 	 
C 	 -44.7796 	 -48.535 	 -73.1938 	 
H 	 -44.454 	 -47.4905 	 -73.0832 	 
H 	 -44.0026 	 -49.2413 	 -72.8916 	 
C 	 -45.9916 	 -48.8851 	 -72.2675 	 
H 	 -45.7059 	 -48.752 	 -71.2175 	 
H 	 -46.3319 	 -49.8979 	 -72.4632 	 
C 	 -47.1715 	 -47.9599 	 -72.5777 	 
H 	 -47.972 	 -48.2709 	 -71.9605 	 
H 	 -47.7002 	 -48.1225 	 -73.5414 	 
H 	 -47.0326 	 -46.9343 	 -72.3083 	 
H 	 -41.5131 	 -53.0964 	 -73.7686 	 
H 	 -46.4658 	 -47.2655 	 -77.3853 	 
