34

S 	 -47.5542 	 16.6768 	 20.1492 	 
C 	 -48.8309 	 16.4838 	 21.3677 	 
C 	 -49.8184 	 15.608 	 21.0061 	 
C 	 -49.4961 	 14.8741 	 19.8316 	 
C 	 -48.3656 	 15.3612 	 19.2039 	 
H 	 -49.9461 	 14.0757 	 19.335 	 
C 	 -51.0211 	 15.3411 	 21.8124 	 
H 	 -51.6294 	 14.7163 	 21.2151 	 
H 	 -51.4727 	 16.3043 	 21.8416 	 
C 	 -50.876 	 14.7511 	 23.2025 	 
H 	 -50.1866 	 15.343 	 23.8203 	 
H 	 -51.8751 	 14.8421 	 23.687 	 
C 	 -50.2666 	 13.3496 	 23.1635 	 
H 	 -50.9823 	 12.572 	 22.7873 	 
H 	 -49.4782 	 13.3955 	 22.3724 	 
H 	 -49.6926 	 13.1083 	 24.0854 	 
S 	 -47.3954 	 13.3048 	 17.6512 	 
C 	 -47.168 	 13.6096 	 15.9709 	 
C 	 -47.4728 	 14.8938 	 15.5634 	 
C 	 -47.9485 	 15.6709 	 16.6875 	 
C 	 -48.0258 	 14.9175 	 17.8618 	 
H 	 -47.1675 	 15.3189 	 14.6523 	 
C 	 -48.2835 	 17.1702 	 16.5833 	 
H 	 -47.769 	 17.5481 	 15.7413 	 
H 	 -47.8948 	 17.7444 	 17.4747 	 
C 	 -49.7339 	 17.5964 	 16.6443 	 
H 	 -50.2032 	 17.4019 	 17.5469 	 
H 	 -50.2293 	 17.0501 	 15.8722 	 
C 	 -49.8031 	 19.0515 	 16.217 	 
H 	 -50.8502 	 19.3227 	 15.904 	 
H 	 -49.1944 	 19.3049 	 15.365 	 
H 	 -49.4708 	 19.7323 	 16.9948 	 
H 	 -48.8616 	 17.0212 	 22.3265 	 
H 	 -46.5167 	 12.9852 	 15.3741 	 
