34

S 	 -41.3152 	 -47.4717 	 -70.8106 	 
C 	 -39.8879 	 -47.0076 	 -70.0005 	 
C 	 -39.3348 	 -47.9904 	 -69.1139 	 
C 	 -40.144 	 -49.1673 	 -69.1155 	 
C 	 -41.1539 	 -49.0836 	 -70.0356 	 
H 	 -40.017 	 -50.1375 	 -68.6784 	 
C 	 -37.9567 	 -47.8188 	 -68.4768 	 
H 	 -38.1708 	 -47.1127 	 -67.7348 	 
H 	 -37.4252 	 -47.316 	 -69.268 	 
C 	 -37.247 	 -49.1531 	 -68.0314 	 
H 	 -37.8033 	 -49.6379 	 -67.1906 	 
H 	 -37.0938 	 -49.8428 	 -68.873 	 
C 	 -35.9001 	 -48.7653 	 -67.5339 	 
H 	 -35.5086 	 -47.9241 	 -68.1699 	 
H 	 -35.979 	 -48.38 	 -66.6085 	 
H 	 -35.1394 	 -49.5567 	 -67.5925 	 
S 	 -42.4075 	 -50.8623 	 -71.7933 	 
C 	 -43.2907 	 -52.2348 	 -71.1422 	 
C 	 -43.4089 	 -52.1569 	 -69.7471 	 
C 	 -42.8035 	 -50.9521 	 -69.2677 	 
C 	 -42.0857 	 -50.1579 	 -70.2238 	 
H 	 -43.9234 	 -52.8421 	 -69.1139 	 
C 	 -42.7128 	 -50.8106 	 -67.7557 	 
H 	 -43.7 	 -50.601 	 -67.2292 	 
H 	 -42.1689 	 -49.9588 	 -67.4508 	 
C 	 -42.0741 	 -51.9569 	 -66.9029 	 
H 	 -41.0047 	 -51.8789 	 -67.0551 	 
H 	 -42.3703 	 -52.959 	 -67.2428 	 
C 	 -42.439 	 -51.7355 	 -65.4261 	 
H 	 -41.846 	 -50.9344 	 -65.0219 	 
H 	 -42.216 	 -52.5805 	 -64.8859 	 
H 	 -43.5422 	 -51.4867 	 -65.409 	 
H 	 -39.2442 	 -46.1416 	 -70.1799 	 
H 	 -43.5686 	 -53.1371 	 -71.6157 	 
