34

S 	 -122.184 	 34.6776 	 -122.607 	 
C 	 -120.444 	 34.9207 	 -122.583 	 
C 	 -119.916 	 34.6632 	 -121.324 	 
C 	 -120.927 	 34.251 	 -120.335 	 
C 	 -122.244 	 34.1807 	 -120.919 	 
H 	 -120.706 	 33.8974 	 -119.366 	 
C 	 -118.494 	 34.751 	 -120.841 	 
H 	 -117.98 	 34.7167 	 -121.82 	 
H 	 -118.154 	 33.7854 	 -120.519 	 
C 	 -118.169 	 36.0202 	 -120.084 	 
H 	 -117.086 	 36.1886 	 -120.102 	 
H 	 -118.68 	 36.893 	 -120.639 	 
C 	 -118.628 	 36.0323 	 -118.621 	 
H 	 -118.255 	 35.1085 	 -118.093 	 
H 	 -118.247 	 36.9038 	 -118.074 	 
H 	 -119.741 	 36.096 	 -118.454 	 
S 	 -123.933 	 32.164 	 -120.402 	 
C 	 -125.289 	 32.2202 	 -119.403 	 
C 	 -125.318 	 33.4172 	 -118.731 	 
C 	 -124.231 	 34.3369 	 -119.153 	 
C 	 -123.438 	 33.7568 	 -120.155 	 
H 	 -125.97 	 33.6585 	 -117.852 	 
C 	 -123.989 	 35.6812 	 -118.456 	 
H 	 -122.907 	 35.8965 	 -118.606 	 
H 	 -124.078 	 35.4433 	 -117.412 	 
C 	 -124.918 	 36.833 	 -118.806 	 
H 	 -125.732 	 36.6476 	 -118.128 	 
H 	 -125.223 	 36.7146 	 -119.877 	 
C 	 -124.359 	 38.1948 	 -118.208 	 
H 	 -123.436 	 38.5044 	 -118.636 	 
H 	 -124.296 	 38.036 	 -117.121 	 
H 	 -125.005 	 38.9766 	 -118.387 	 
H 	 -119.816 	 35.3616 	 -123.388 	 
H 	 -125.931 	 31.4067 	 -119.054 	 
