34

S 	 -74.4445 	 7.65612 	 -103.549 	 
C 	 -75.6559 	 8.933 	 -103.739 	 
C 	 -76.0045 	 9.04892 	 -105.049 	 
C 	 -75.3925 	 8.03362 	 -105.913 	 
C 	 -74.4627 	 7.25776 	 -105.262 	 
H 	 -75.5552 	 8.07398 	 -106.981 	 
C 	 -76.9722 	 10.0422 	 -105.59 	 
H 	 -76.7331 	 10.2095 	 -106.607 	 
H 	 -76.8269 	 11.0165 	 -105.139 	 
C 	 -78.4516 	 9.54604 	 -105.544 	 
H 	 -78.798 	 9.47483 	 -104.505 	 
H 	 -78.9873 	 10.2451 	 -106.131 	 
C 	 -78.763 	 8.22842 	 -106.225 	 
H 	 -78.2389 	 7.37456 	 -105.814 	 
H 	 -79.783 	 7.7953 	 -106.114 	 
H 	 -78.4172 	 8.30955 	 -107.333 	 
S 	 -72.7397 	 5.12881 	 -104.772 	 
C 	 -72.2403 	 4.1085 	 -106.085 	 
C 	 -72.7832 	 4.5248 	 -107.198 	 
C 	 -73.5668 	 5.71379 	 -107.121 	 
C 	 -73.7014 	 6.13668 	 -105.788 	 
H 	 -72.5657 	 4.03189 	 -108.16 	 
C 	 -74.1152 	 6.32821 	 -108.41 	 
H 	 -73.5344 	 6.03003 	 -109.276 	 
H 	 -74.0512 	 7.39898 	 -108.415 	 
C 	 -75.5622 	 5.87097 	 -108.672 	 
H 	 -76.0122 	 5.93208 	 -107.718 	 
H 	 -75.5298 	 4.76233 	 -108.906 	 
C 	 -76.241 	 6.68826 	 -109.766 	 
H 	 -75.775 	 6.72009 	 -110.742 	 
H 	 -76.3975 	 7.63068 	 -109.216 	 
H 	 -77.2701 	 6.23487 	 -109.896 	 
H 	 -75.9951 	 9.4873 	 -102.86 	 
H 	 -71.5414 	 3.2951 	 -106.064 	 
