34

S 	 42.959 	 -14.4899 	 -107.768 	 
C 	 42.3315 	 -15.6866 	 -108.848 	 
C 	 43.1748 	 -15.9368 	 -109.893 	 
C 	 44.3357 	 -15.0856 	 -109.849 	 
C 	 44.3852 	 -14.1907 	 -108.78 	 
H 	 45.1283 	 -15.1462 	 -110.548 	 
C 	 42.957 	 -17.0078 	 -110.913 	 
H 	 42.9928 	 -16.5565 	 -111.883 	 
H 	 41.9249 	 -17.4186 	 -110.646 	 
C 	 43.9977 	 -18.1708 	 -110.852 	 
H 	 43.7685 	 -18.8373 	 -111.775 	 
H 	 45.0596 	 -17.8664 	 -110.954 	 
C 	 43.8896 	 -18.8909 	 -109.577 	 
H 	 42.91 	 -19.2968 	 -109.561 	 
H 	 44.6146 	 -19.651 	 -109.538 	 
H 	 43.8955 	 -18.1979 	 -108.797 	 
S 	 45.3674 	 -11.7411 	 -108.02 	 
C 	 47.0453 	 -11.6193 	 -107.554 	 
C 	 47.7775 	 -12.7717 	 -107.87 	 
C 	 46.9323 	 -13.8761 	 -108.293 	 
C 	 45.5689 	 -13.4443 	 -108.322 	 
H 	 48.8628 	 -12.8471 	 -107.664 	 
C 	 47.5623 	 -15.2064 	 -108.553 	 
H 	 48.5623 	 -15.0841 	 -108.888 	 
H 	 47.2981 	 -15.7179 	 -109.493 	 
C 	 47.6156 	 -16.2081 	 -107.35 	 
H 	 48.2252 	 -15.7827 	 -106.608 	 
H 	 48.1437 	 -17.0842 	 -107.816 	 
C 	 46.2228 	 -16.4597 	 -106.694 	 
H 	 46.3075 	 -16.8773 	 -105.65 	 
H 	 45.5308 	 -17.0992 	 -107.291 	 
H 	 45.8052 	 -15.4558 	 -106.45 	 
H 	 41.3896 	 -16.0864 	 -108.635 	 
H 	 47.4396 	 -10.7493 	 -107.004 	 
