34

S 	 -132.901 	 21.6621 	 -17.3286 	 
C 	 -132.772 	 20.2666 	 -16.2477 	 
C 	 -132.899 	 19.0867 	 -16.8767 	 
C 	 -132.982 	 19.304 	 -18.2846 	 
C 	 -133.13 	 20.5576 	 -18.6838 	 
H 	 -133.089 	 18.493 	 -19.0065 	 
C 	 -132.996 	 17.7147 	 -16.2419 	 
H 	 -133.286 	 17.665 	 -15.2358 	 
H 	 -131.925 	 17.3674 	 -16.2356 	 
C 	 -133.824 	 16.5681 	 -17.0434 	 
H 	 -133.425 	 16.3198 	 -18.0415 	 
H 	 -133.61 	 15.596 	 -16.525 	 
C 	 -135.361 	 16.8782 	 -17.3196 	 
H 	 -136.087 	 16.7991 	 -16.4411 	 
H 	 -135.403 	 17.9735 	 -17.6117 	 
H 	 -135.809 	 16.3818 	 -18.1288 	 
S 	 -132.162 	 22.3269 	 -20.5645 	 
C 	 -132.925 	 22.2229 	 -22.203 	 
C 	 -134.055 	 21.4501 	 -22.2209 	 
C 	 -134.242 	 20.7449 	 -20.9927 	 
C 	 -133.267 	 21.0395 	 -20.0204 	 
H 	 -134.668 	 21.4259 	 -23.0393 	 
C 	 -135.374 	 19.7576 	 -20.8094 	 
H 	 -136.231 	 20.1732 	 -21.272 	 
H 	 -135.601 	 19.5068 	 -19.8039 	 
C 	 -135.131 	 18.4162 	 -21.5363 	 
H 	 -134.278 	 17.8855 	 -21.1935 	 
H 	 -135.014 	 18.5755 	 -22.6496 	 
C 	 -136.302 	 17.4601 	 -21.2332 	 
H 	 -136.2 	 17.0921 	 -20.1959 	 
H 	 -136.266 	 16.549 	 -21.7613 	 
H 	 -137.378 	 17.7823 	 -21.4299 	 
H 	 -132.586 	 20.3386 	 -15.1745 	 
H 	 -132.674 	 22.9228 	 -23.0062 	 
