34

S 	 -144.507 	 8.17045 	 -6.16607 	 
C 	 -144.818 	 9.65069 	 -5.25333 	 
C 	 -144.305 	 9.56085 	 -3.91534 	 
C 	 -143.538 	 8.33662 	 -3.79471 	 
C 	 -143.431 	 7.47375 	 -4.88664 	 
H 	 -143.088 	 8.00848 	 -2.85903 	 
C 	 -144.38 	 10.6137 	 -2.90252 	 
H 	 -144.291 	 11.5642 	 -3.45433 	 
H 	 -143.448 	 10.6077 	 -2.29771 	 
C 	 -145.64 	 10.7115 	 -2.04014 	 
H 	 -146.504 	 10.9684 	 -2.6956 	 
H 	 -145.932 	 9.83188 	 -1.48257 	 
C 	 -145.442 	 11.9037 	 -1.0709 	 
H 	 -144.739 	 11.6357 	 -0.238736 	 
H 	 -145.045 	 12.8018 	 -1.54724 	 
H 	 -146.447 	 12.0677 	 -0.574698 	 
S 	 -144.184 	 4.89477 	 -5.50724 	 
C 	 -143.096 	 3.55353 	 -5.28259 	 
C 	 -141.905 	 3.96796 	 -4.6841 	 
C 	 -141.809 	 5.37423 	 -4.45604 	 
C 	 -142.976 	 6.04922 	 -4.8222 	 
H 	 -141.093 	 3.1503 	 -4.47303 	 
C 	 -140.59 	 6.09495 	 -3.88556 	 
H 	 -140.005 	 5.37138 	 -3.37316 	 
H 	 -140.799 	 6.65714 	 -2.92217 	 
C 	 -139.557 	 6.77729 	 -4.83026 	 
H 	 -139.086 	 6.01723 	 -5.57413 	 
H 	 -138.747 	 7.03507 	 -4.1746 	 
C 	 -140.036 	 8.09887 	 -5.54824 	 
H 	 -140.929 	 7.88765 	 -6.12426 	 
H 	 -139.21 	 8.46666 	 -6.07166 	 
H 	 -140.434 	 8.82785 	 -4.82328 	 
H 	 -145.248 	 10.545 	 -5.67406 	 
H 	 -143.367 	 2.55225 	 -5.5381 	 
