34

S 	 -45.3757 	 -9.84271 	 -19.8913 	 
C 	 -45.6586 	 -11.5662 	 -19.9682 	 
C 	 -45.5659 	 -12.1833 	 -18.7006 	 
C 	 -45.1475 	 -11.1947 	 -17.767 	 
C 	 -44.9685 	 -9.92596 	 -18.3003 	 
H 	 -44.877 	 -11.5704 	 -16.8086 	 
C 	 -45.469 	 -13.6422 	 -18.3531 	 
H 	 -46.3523 	 -14.0109 	 -17.7892 	 
H 	 -44.6208 	 -13.9038 	 -17.6573 	 
C 	 -45.3434 	 -14.5738 	 -19.521 	 
H 	 -46.1931 	 -14.5362 	 -20.1799 	 
H 	 -44.4249 	 -14.356 	 -20.1469 	 
C 	 -45.2762 	 -16.0662 	 -19.0079 	 
H 	 -46.2302 	 -16.5167 	 -18.7613 	 
H 	 -44.9162 	 -16.6799 	 -19.8081 	 
H 	 -44.6904 	 -16.2046 	 -18.0541 	 
S 	 -42.8748 	 -8.22448 	 -18.7895 	 
C 	 -42.2638 	 -7.14894 	 -17.5576 	 
C 	 -43.1251 	 -7.22405 	 -16.4438 	 
C 	 -44.1974 	 -8.15558 	 -16.6092 	 
C 	 -44.2239 	 -8.75709 	 -17.8463 	 
H 	 -43.0865 	 -6.53578 	 -15.6165 	 
C 	 -45.2446 	 -8.37462 	 -15.4954 	 
H 	 -46.1142 	 -8.8271 	 -16.0179 	 
H 	 -45.6419 	 -7.41132 	 -15.1621 	 
C 	 -44.8573 	 -9.25609 	 -14.3314 	 
H 	 -44.0913 	 -8.86802 	 -13.8216 	 
H 	 -44.5101 	 -10.1837 	 -14.7694 	 
C 	 -46.0713 	 -9.39175 	 -13.3715 	 
H 	 -46.8335 	 -10.0085 	 -13.8058 	 
H 	 -46.42 	 -8.36625 	 -13.1879 	 
H 	 -45.6933 	 -9.74762 	 -12.3907 	 
H 	 -45.8916 	 -12.0456 	 -20.9101 	 
H 	 -41.2874 	 -6.56082 	 -17.6256 	 
