34

S 	 -127.216 	 61.1463 	 -61.8775 	 
C 	 -128.832 	 61.2089 	 -62.4896 	 
C 	 -129.768 	 60.8168 	 -61.5789 	 
C 	 -129.133 	 60.5674 	 -60.3303 	 
C 	 -127.742 	 60.7231 	 -60.2774 	 
H 	 -129.771 	 60.4167 	 -59.4929 	 
C 	 -131.264 	 60.9022 	 -61.7788 	 
H 	 -131.797 	 60.3268 	 -61.0223 	 
H 	 -131.432 	 60.3987 	 -62.7614 	 
C 	 -131.753 	 62.3545 	 -61.6544 	 
H 	 -131.339 	 62.8375 	 -60.7212 	 
H 	 -131.329 	 62.8395 	 -62.4766 	 
C 	 -133.312 	 62.3544 	 -61.6402 	 
H 	 -133.542 	 62.1453 	 -60.615 	 
H 	 -133.686 	 63.4072 	 -61.704 	 
H 	 -133.894 	 61.5687 	 -62.2073 	 
S 	 -125.197 	 60.1834 	 -59.4013 	 
C 	 -124.913 	 60.095 	 -57.6713 	 
C 	 -126.04 	 60.3801 	 -56.9029 	 
C 	 -127.171 	 60.7373 	 -57.672 	 
C 	 -126.863 	 60.5539 	 -59.0576 	 
H 	 -125.919 	 60.4746 	 -55.8333 	 
C 	 -128.463 	 61.1624 	 -56.969 	 
H 	 -128.978 	 61.8347 	 -57.6874 	 
H 	 -128.094 	 61.7673 	 -56.1588 	 
C 	 -129.409 	 60.1093 	 -56.5045 	 
H 	 -128.993 	 59.3545 	 -55.8055 	 
H 	 -129.744 	 59.6354 	 -57.4094 	 
C 	 -130.704 	 60.7577 	 -55.9774 	 
H 	 -131.324 	 61.1499 	 -56.8289 	 
H 	 -130.53 	 61.5965 	 -55.3417 	 
H 	 -131.197 	 60.0678 	 -55.3669 	 
H 	 -128.999 	 61.3842 	 -63.5405 	 
H 	 -124.063 	 59.837 	 -57.1941 	 
