34

S 	 -141.27 	 7.92748 	 2.78836 	 
C 	 -140.185 	 7.35821 	 1.54539 	 
C 	 -138.922 	 7.36263 	 2.00184 	 
C 	 -138.792 	 7.74937 	 3.3519 	 
C 	 -140.005 	 8.09771 	 3.99497 	 
H 	 -137.809 	 7.71076 	 3.90741 	 
C 	 -137.829 	 6.91575 	 1.10082 	 
H 	 -138.065 	 7.07366 	 -0.000779546 	 
H 	 -137.62 	 5.90382 	 1.32664 	 
C 	 -136.532 	 7.77008 	 1.34767 	 
H 	 -136.727 	 8.84316 	 1.40334 	 
H 	 -136.315 	 7.50409 	 2.35018 	 
C 	 -135.386 	 7.38558 	 0.382355 	 
H 	 -135.127 	 6.33358 	 0.594052 	 
H 	 -135.612 	 7.38347 	 -0.705705 	 
H 	 -134.483 	 7.92346 	 0.600756 	 
S 	 -141.407 	 9.97917 	 5.68215 	 
C 	 -140.96 	 10.0938 	 7.38695 	 
C 	 -140.264 	 8.9755 	 7.77745 	 
C 	 -139.734 	 8.23841 	 6.65548 	 
C 	 -140.208 	 8.62515 	 5.38553 	 
H 	 -140.024 	 8.94616 	 8.85914 	 
C 	 -138.624 	 7.1769 	 6.93467 	 
H 	 -138.267 	 7.22904 	 7.97116 	 
H 	 -137.789 	 7.40494 	 6.29313 	 
C 	 -139.033 	 5.6494 	 6.79739 	 
H 	 -139.487 	 5.56635 	 5.7594 	 
H 	 -139.77 	 5.25931 	 7.48027 	 
C 	 -137.776 	 4.70547 	 6.76697 	 
H 	 -137.037 	 5.24808 	 6.15985 	 
H 	 -137.922 	 3.70686 	 6.32559 	 
H 	 -137.269 	 4.64464 	 7.69126 	 
H 	 -140.508 	 7.20346 	 0.534679 	 
H 	 -141.364 	 10.8392 	 8.0641 	 
