34

S 	 34.733 	 -31.2446 	 -112.717 	 
C 	 33.2342 	 -31.9334 	 -112.312 	 
C 	 33.2017 	 -33.3322 	 -112.549 	 
C 	 34.4295 	 -33.8086 	 -113.11 	 
C 	 35.26 	 -32.7567 	 -113.39 	 
H 	 34.6015 	 -34.8361 	 -113.493 	 
C 	 32.0438 	 -34.2831 	 -112.387 	 
H 	 31.8214 	 -34.6475 	 -113.417 	 
H 	 31.133 	 -33.7635 	 -112.053 	 
C 	 32.3252 	 -35.5524 	 -111.463 	 
H 	 32.9277 	 -36.313 	 -111.957 	 
H 	 32.8719 	 -35.3471 	 -110.555 	 
C 	 31.003 	 -36.0775 	 -110.865 	 
H 	 30.1826 	 -36.4166 	 -111.49 	 
H 	 31.1799 	 -36.9191 	 -110.188 	 
H 	 30.6179 	 -35.2976 	 -110.208 	 
S 	 36.8804 	 -33.9389 	 -115.285 	 
C 	 38.6257 	 -33.6986 	 -115.297 	 
C 	 38.9628 	 -32.8766 	 -114.232 	 
C 	 37.8693 	 -32.5065 	 -113.39 	 
C 	 36.6213 	 -32.8919 	 -113.851 	 
H 	 40.0041 	 -32.8649 	 -113.973 	 
C 	 38.0954 	 -31.7305 	 -112.102 	 
H 	 37.1247 	 -31.3797 	 -111.864 	 
H 	 38.8104 	 -30.9178 	 -112.251 	 
C 	 38.5671 	 -32.576 	 -110.92 	 
H 	 38.6008 	 -32.0315 	 -110.014 	 
H 	 39.5995 	 -32.873 	 -110.964 	 
C 	 37.8141 	 -33.9089 	 -110.633 	 
H 	 36.8484 	 -33.8832 	 -111.066 	 
H 	 37.7597 	 -34.2205 	 -109.59 	 
H 	 38.3306 	 -34.7139 	 -111.135 	 
H 	 32.4358 	 -31.4504 	 -111.762 	 
H 	 39.4012 	 -34.2368 	 -115.902 	 
