34

S 	 -126.45 	 62.7197 	 -56.8387 	 
C 	 -125.632 	 63.2337 	 -55.416 	 
C 	 -126.392 	 62.9087 	 -54.3273 	 
C 	 -127.498 	 62.0509 	 -54.6055 	 
C 	 -127.702 	 61.9887 	 -55.9361 	 
H 	 -128.141 	 61.6669 	 -53.8135 	 
C 	 -126.041 	 63.376 	 -52.8746 	 
H 	 -125.101 	 63.9541 	 -52.7576 	 
H 	 -125.785 	 62.4295 	 -52.3781 	 
C 	 -127.093 	 64.1642 	 -52.0615 	 
H 	 -128.163 	 63.9795 	 -52.3408 	 
H 	 -127.117 	 63.8204 	 -50.9663 	 
C 	 -126.951 	 65.7347 	 -52.2237 	 
H 	 -127.165 	 66.0982 	 -53.2746 	 
H 	 -127.615 	 66.2944 	 -51.5891 	 
H 	 -125.938 	 65.8716 	 -51.9848 	 
S 	 -128.249 	 60.163 	 -57.8762 	 
C 	 -129.774 	 59.4811 	 -57.9365 	 
C 	 -130.671 	 59.9586 	 -57.0072 	 
C 	 -130.135 	 61.0768 	 -56.1985 	 
C 	 -128.772 	 61.1561 	 -56.4862 	 
H 	 -131.632 	 59.6426 	 -56.9273 	 
C 	 -130.899 	 61.8811 	 -55.1986 	 
H 	 -131.874 	 62.1561 	 -55.6191 	 
H 	 -130.287 	 62.7921 	 -54.9809 	 
C 	 -131.106 	 61.0178 	 -53.9203 	 
H 	 -130.222 	 60.5457 	 -53.6204 	 
H 	 -131.693 	 60.2093 	 -54.2096 	 
C 	 -131.892 	 61.8405 	 -52.7604 	 
H 	 -132.911 	 62.0501 	 -53.0765 	 
H 	 -131.571 	 62.9352 	 -52.6976 	 
H 	 -131.89 	 61.2279 	 -51.7995 	 
H 	 -124.72 	 63.6944 	 -55.4063 	 
H 	 -129.965 	 58.6443 	 -58.583 	 
