34

S 	 -31.0146 	 18.7578 	 4.42042 	 
C 	 -31.4799 	 17.3072 	 3.50632 	 
C 	 -31.6092 	 16.2185 	 4.35027 	 
C 	 -31.3839 	 16.5455 	 5.75332 	 
C 	 -30.9296 	 17.8293 	 5.93317 	 
H 	 -31.4534 	 15.8246 	 6.59204 	 
C 	 -32.1823 	 14.9484 	 3.82589 	 
H 	 -32.5806 	 15.0014 	 2.78558 	 
H 	 -32.9907 	 14.8681 	 4.51339 	 
C 	 -31.2222 	 13.6769 	 3.7644 	 
H 	 -30.4035 	 14.0637 	 3.13553 	 
H 	 -30.868 	 13.5097 	 4.80958 	 
C 	 -31.9235 	 12.4246 	 3.13269 	 
H 	 -32.7986 	 12.1818 	 3.74044 	 
H 	 -32.3046 	 12.629 	 2.1403 	 
H 	 -31.2689 	 11.4965 	 3.00579 	 
S 	 -31.4281 	 19.7078 	 7.93412 	 
C 	 -30.3298 	 19.6913 	 9.34836 	 
C 	 -29.379 	 18.7178 	 9.28622 	 
C 	 -29.396 	 18.0852 	 8.00272 	 
C 	 -30.4654 	 18.4549 	 7.18442 	 
H 	 -28.8168 	 18.5524 	 10.1505 	 
C 	 -28.5597 	 16.8005 	 7.73559 	 
H 	 -27.5286 	 17.1961 	 8.00675 	 
H 	 -28.5036 	 16.5412 	 6.66745 	 
C 	 -28.9312 	 15.5959 	 8.64525 	 
H 	 -30.0407 	 15.5198 	 8.56001 	 
H 	 -28.7322 	 15.8908 	 9.69276 	 
C 	 -28.2388 	 14.3656 	 8.08834 	 
H 	 -28.3198 	 13.4416 	 8.64179 	 
H 	 -27.1704 	 14.6176 	 7.91742 	 
H 	 -28.6164 	 14.1206 	 7.03251 	 
H 	 -31.7404 	 17.3933 	 2.50082 	 
H 	 -30.5284 	 20.2345 	 10.2997 	 
