34

S 	 -139.503 	 9.09044 	 5.19535 	 
C 	 -140.615 	 9.44674 	 3.85085 	 
C 	 -141.36 	 10.5402 	 4.25469 	 
C 	 -141.224 	 10.9648 	 5.57915 	 
C 	 -140.45 	 10.1089 	 6.30116 	 
H 	 -141.823 	 11.6739 	 6.07234 	 
C 	 -142.446 	 11.2264 	 3.39103 	 
H 	 -142.191 	 12.2909 	 3.34718 	 
H 	 -143.421 	 11.0417 	 3.86373 	 
C 	 -142.453 	 10.8969 	 1.90755 	 
H 	 -141.442 	 10.8902 	 1.45535 	 
H 	 -142.757 	 9.86342 	 1.89912 	 
C 	 -143.545 	 11.6407 	 1.09206 	 
H 	 -144.509 	 11.3598 	 1.5055 	 
H 	 -143.361 	 12.6799 	 1.34528 	 
H 	 -143.468 	 11.5718 	 0.0460599 	 
S 	 -140.197 	 8.55807 	 8.5359 	 
C 	 -139.407 	 9.27027 	 9.95503 	 
C 	 -139.144 	 10.6168 	 9.83293 	 
C 	 -139.641 	 11.1368 	 8.57893 	 
C 	 -140.091 	 10.1297 	 7.70407 	 
H 	 -138.854 	 11.1517 	 10.6984 	 
C 	 -139.705 	 12.5992 	 8.12852 	 
H 	 -140.747 	 12.6743 	 7.81601 	 
H 	 -139.02 	 12.785 	 7.31453 	 
C 	 -139.49 	 13.6875 	 9.17624 	 
H 	 -138.53 	 13.5419 	 9.64829 	 
H 	 -140.157 	 13.4696 	 10.0209 	 
C 	 -139.766 	 15.106 	 8.61707 	 
H 	 -139.519 	 15.9251 	 9.34611 	 
H 	 -140.686 	 15.2445 	 8.13204 	 
H 	 -139.067 	 15.239 	 7.77448 	 
H 	 -140.638 	 9.08514 	 2.85327 	 
H 	 -139.28 	 8.76687 	 10.9276 	 
