34

S 	 -64.8737 	 19.3325 	 -118.937 	 
C 	 -63.1377 	 19.4462 	 -118.697 	 
C 	 -62.7729 	 19.7262 	 -117.418 	 
C 	 -63.9015 	 19.8034 	 -116.556 	 
C 	 -65.1241 	 19.6926 	 -117.23 	 
H 	 -64.0229 	 19.8702 	 -115.468 	 
C 	 -61.3748 	 20.0664 	 -117.044 	 
H 	 -60.4924 	 19.6756 	 -117.624 	 
H 	 -61.2779 	 19.6583 	 -116.056 	 
C 	 -61.0683 	 21.611 	 -117.091 	 
H 	 -61.6576 	 22.1552 	 -116.326 	 
H 	 -60.1149 	 21.7965 	 -116.639 	 
C 	 -61.049 	 22.4087 	 -118.449 	 
H 	 -61.9552 	 22.1431 	 -118.974 	 
H 	 -61.021 	 23.4843 	 -118.37 	 
H 	 -60.3308 	 21.8831 	 -119.037 	 
S 	 -67.3742 	 18.1928 	 -117.016 	 
C 	 -68.6748 	 18.5865 	 -115.974 	 
C 	 -68.4643 	 19.8215 	 -115.454 	 
C 	 -67.2068 	 20.431 	 -115.759 	 
C 	 -66.5116 	 19.6722 	 -116.702 	 
H 	 -69.2814 	 20.3302 	 -114.942 	 
C 	 -66.8101 	 21.7608 	 -115.289 	 
H 	 -65.7597 	 21.5898 	 -114.882 	 
H 	 -67.3859 	 22.0268 	 -114.348 	 
C 	 -66.8615 	 22.8769 	 -116.286 	 
H 	 -67.8438 	 22.9357 	 -116.847 	 
H 	 -66.2201 	 22.5637 	 -117.017 	 
C 	 -66.3817 	 24.1592 	 -115.627 	 
H 	 -66.9777 	 24.3367 	 -114.757 	 
H 	 -66.4865 	 25.1875 	 -116.115 	 
H 	 -65.2994 	 24.0408 	 -115.379 	 
H 	 -62.4558 	 19.4745 	 -119.51 	 
H 	 -69.5819 	 18.0345 	 -115.779 	 
