34

S 	 27.8632 	 -31.9867 	 -131.544 	 
C 	 28.5321 	 -31.3316 	 -133.081 	 
C 	 29.7213 	 -30.5915 	 -132.774 	 
C 	 30.0105 	 -30.5868 	 -131.421 	 
C 	 29.1442 	 -31.2401 	 -130.541 	 
H 	 31.0158 	 -30.2365 	 -131.064 	 
C 	 30.6686 	 -30.0161 	 -133.87 	 
H 	 30.8029 	 -30.8637 	 -134.56 	 
H 	 31.6215 	 -29.7605 	 -133.399 	 
C 	 30.0224 	 -28.8987 	 -134.7 	 
H 	 29.4928 	 -29.2759 	 -135.624 	 
H 	 29.3078 	 -28.3634 	 -134.134 	 
C 	 31.0452 	 -27.8709 	 -135.097 	 
H 	 31.4377 	 -27.4574 	 -134.146 	 
H 	 31.8673 	 -28.3179 	 -135.709 	 
H 	 30.5894 	 -27.1561 	 -135.792 	 
S 	 28.5417 	 -33.0154 	 -128.474 	 
C 	 29.362 	 -33.0088 	 -127 	 
C 	 30.2342 	 -31.9376 	 -127.023 	 
C 	 30.2251 	 -31.1058 	 -128.204 	 
C 	 29.3486 	 -31.6165 	 -129.106 	 
H 	 30.7331 	 -31.623 	 -126.163 	 
C 	 31.1369 	 -29.8726 	 -128.255 	 
H 	 31.0642 	 -29.2757 	 -127.303 	 
H 	 30.6818 	 -29.1342 	 -128.977 	 
C 	 32.6537 	 -30.0608 	 -128.642 	 
H 	 32.6821 	 -30.6311 	 -129.564 	 
H 	 33.3006 	 -30.6062 	 -127.903 	 
C 	 33.3667 	 -28.7055 	 -129.031 	 
H 	 32.9615 	 -28.2601 	 -129.935 	 
H 	 34.4254 	 -28.6807 	 -129.053 	 
H 	 33.1553 	 -28.0787 	 -128.229 	 
H 	 28.1891 	 -31.5111 	 -134.054 	 
H 	 29.1774 	 -33.7068 	 -126.237 	 
