34

S 	 -106.379 	 55.9606 	 -100.749 	 
C 	 -107.934 	 55.2436 	 -100.547 	 
C 	 -109.028 	 56.0994 	 -100.43 	 
C 	 -108.51 	 57.4791 	 -100.509 	 
C 	 -107.088 	 57.608 	 -100.67 	 
H 	 -109.115 	 58.3928 	 -100.415 	 
C 	 -110.469 	 55.7788 	 -100.183 	 
H 	 -110.656 	 55.5607 	 -99.1414 	 
H 	 -110.669 	 54.7826 	 -100.645 	 
C 	 -111.479 	 56.6629 	 -100.848 	 
H 	 -112.502 	 56.3915 	 -100.536 	 
H 	 -111.415 	 57.6807 	 -100.453 	 
C 	 -111.398 	 56.6281 	 -102.394 	 
H 	 -112.357 	 56.8736 	 -102.947 	 
H 	 -110.692 	 57.4017 	 -102.811 	 
H 	 -111.058 	 55.6649 	 -102.807 	 
S 	 -104.773 	 58.5974 	 -99.655 	 
C 	 -104.301 	 60.2638 	 -99.8384 	 
C 	 -105.273 	 60.9414 	 -100.489 	 
C 	 -106.327 	 60.1159 	 -100.965 	 
C 	 -106.285 	 58.8112 	 -100.488 	 
H 	 -105.364 	 61.9876 	 -100.599 	 
C 	 -107.47 	 60.751 	 -101.751 	 
H 	 -108.219 	 60.0112 	 -102.088 	 
H 	 -107.029 	 61.0243 	 -102.682 	 
C 	 -108.175 	 61.905 	 -101.088 	 
H 	 -108.982 	 62.2234 	 -101.756 	 
H 	 -107.454 	 62.71 	 -101.022 	 
C 	 -108.787 	 61.5491 	 -99.7315 	 
H 	 -109.422 	 60.799 	 -100.019 	 
H 	 -109.342 	 62.3813 	 -99.2728 	 
H 	 -108.001 	 61.1369 	 -99.1593 	 
H 	 -107.998 	 54.1911 	 -100.295 	 
H 	 -103.421 	 60.6993 	 -99.5333 	 
