34

S 	 -44.3894 	 -2.82456 	 -8.96127 	 
C 	 -45.9004 	 -2.34171 	 -8.42154 	 
C 	 -46.7708 	 -2.06669 	 -9.50051 	 
C 	 -46.0422 	 -2.04685 	 -10.7208 	 
C 	 -44.6991 	 -2.38992 	 -10.6243 	 
H 	 -46.595 	 -1.71728 	 -11.604 	 
C 	 -48.3064 	 -1.77272 	 -9.47933 	 
H 	 -48.3771 	 -1.13602 	 -10.3661 	 
H 	 -48.5307 	 -1.36513 	 -8.54347 	 
C 	 -49.219 	 -2.93122 	 -9.67053 	 
H 	 -49.1499 	 -3.54728 	 -8.76155 	 
H 	 -50.2541 	 -2.59395 	 -9.78626 	 
C 	 -48.9541 	 -3.68668 	 -10.9921 	 
H 	 -49.6047 	 -4.52702 	 -11.0187 	 
H 	 -49.1264 	 -3.11224 	 -11.8762 	 
H 	 -47.9431 	 -4.06081 	 -11.1353 	 
S 	 -42.7053 	 -0.759652 	 -11.5293 	 
C 	 -41.8608 	 -1.25347 	 -12.9922 	 
C 	 -42.4619 	 -2.3065 	 -13.6456 	 
C 	 -43.4737 	 -2.87268 	 -12.7952 	 
C 	 -43.7144 	 -2.15995 	 -11.6375 	 
H 	 -42.0596 	 -2.79298 	 -14.5382 	 
C 	 -44.3681 	 -3.99829 	 -13.3373 	 
H 	 -44.6445 	 -4.57212 	 -12.4513 	 
H 	 -43.732 	 -4.69364 	 -13.9608 	 
C 	 -45.5894 	 -3.45109 	 -14.2099 	 
H 	 -45.1731 	 -3.10634 	 -15.2329 	 
H 	 -45.9655 	 -2.47275 	 -13.9096 	 
C 	 -46.6807 	 -4.38862 	 -14.5154 	 
H 	 -47.4684 	 -3.95785 	 -15.1333 	 
H 	 -47.2531 	 -4.88447 	 -13.7184 	 
H 	 -46.2179 	 -5.29868 	 -14.9834 	 
H 	 -46.1585 	 -2.40958 	 -7.39713 	 
H 	 -41.0528 	 -0.625884 	 -13.3286 	 
