34

S 	 -112.56 	 59.6818 	 -76.6252 	 
C 	 -112.895 	 60.894 	 -77.9491 	 
C 	 -113.524 	 62.0256 	 -77.4414 	 
C 	 -113.663 	 62.0055 	 -75.9984 	 
C 	 -113.149 	 60.8826 	 -75.386 	 
H 	 -113.971 	 62.8045 	 -75.3236 	 
C 	 -113.893 	 63.2703 	 -78.1861 	 
H 	 -113.044 	 63.7785 	 -78.6017 	 
H 	 -114.275 	 63.9605 	 -77.5171 	 
C 	 -115.004 	 63.1493 	 -79.268 	 
H 	 -115.343 	 64.0801 	 -79.7807 	 
H 	 -114.694 	 62.431 	 -80.0556 	 
C 	 -116.308 	 62.6415 	 -78.6831 	 
H 	 -116.188 	 61.5319 	 -78.7901 	 
H 	 -116.341 	 62.8909 	 -77.6516 	 
H 	 -117.119 	 63.0809 	 -79.271 	 
S 	 -111.392 	 60.0159 	 -73.44 	 
C 	 -111.984 	 59.7294 	 -71.7934 	 
C 	 -113.351 	 59.9158 	 -71.7483 	 
C 	 -113.933 	 60.5311 	 -72.8939 	 
C 	 -113.007 	 60.51 	 -73.9612 	 
H 	 -113.762 	 59.6585 	 -70.6918 	 
C 	 -115.453 	 60.7139 	 -73.131 	 
H 	 -115.653 	 61.687 	 -73.6222 	 
H 	 -116.088 	 60.8081 	 -72.2107 	 
C 	 -116.064 	 59.6313 	 -73.9809 	 
H 	 -116.299 	 58.7658 	 -73.397 	 
H 	 -115.41 	 59.2841 	 -74.7313 	 
C 	 -117.419 	 60.1881 	 -74.6042 	 
H 	 -117.872 	 59.5114 	 -75.3319 	 
H 	 -117.191 	 61.0716 	 -75.1569 	 
H 	 -118.221 	 60.3667 	 -73.8236 	 
H 	 -112.661 	 60.7984 	 -78.9875 	 
H 	 -111.355 	 59.4605 	 -70.9716 	 
