34

S 	 -106.935 	 53.7719 	 -13.5886 	 
C 	 -105.855 	 54.8591 	 -14.4302 	 
C 	 -104.587 	 54.923 	 -13.8843 	 
C 	 -104.534 	 54.2674 	 -12.603 	 
C 	 -105.637 	 53.4431 	 -12.3739 	 
H 	 -103.632 	 54.1959 	 -11.9853 	 
C 	 -103.431 	 55.7189 	 -14.3721 	 
H 	 -103.126 	 56.427 	 -13.5333 	 
H 	 -103.726 	 56.3578 	 -15.2234 	 
C 	 -102.176 	 55.0357 	 -14.7117 	 
H 	 -101.993 	 54.3249 	 -13.9009 	 
H 	 -102.225 	 54.3725 	 -15.5704 	 
C 	 -101.029 	 56.0233 	 -14.886 	 
H 	 -100.055 	 55.5401 	 -15.152 	 
H 	 -101.234 	 56.697 	 -15.7274 	 
H 	 -100.931 	 56.7073 	 -14.0287 	 
S 	 -107.062 	 53.0321 	 -10.0187 	 
C 	 -106.908 	 51.5382 	 -9.18889 	 
C 	 -105.885 	 50.7908 	 -9.65161 	 
C 	 -105.262 	 51.3528 	 -10.8244 	 
C 	 -105.837 	 52.5788 	 -11.1917 	 
H 	 -105.676 	 49.8507 	 -9.2438 	 
C 	 -104.169 	 50.6206 	 -11.6659 	 
H 	 -104.513 	 50.5933 	 -12.6802 	 
H 	 -104.299 	 49.5704 	 -11.3118 	 
C 	 -102.687 	 51.01 	 -11.5927 	 
H 	 -102.247 	 50.9735 	 -10.6038 	 
H 	 -102.613 	 52.1057 	 -11.9178 	 
C 	 -101.737 	 50.346 	 -12.6497 	 
H 	 -100.736 	 50.6089 	 -12.5541 	 
H 	 -102.06 	 50.5021 	 -13.6988 	 
H 	 -101.812 	 49.2936 	 -12.4676 	 
H 	 -106.058 	 55.4432 	 -15.3195 	 
H 	 -107.393 	 51.148 	 -8.36943 	 
