34

S 	 -104.278 	 58.2653 	 -102.353 	 
C 	 -105.214 	 59.6096 	 -101.75 	 
C 	 -104.36 	 60.6637 	 -101.509 	 
C 	 -102.997 	 60.496 	 -101.84 	 
C 	 -102.785 	 59.2062 	 -102.227 	 
H 	 -102.291 	 61.2397 	 -101.819 	 
C 	 -104.871 	 61.9647 	 -100.882 	 
H 	 -104.474 	 62.0427 	 -99.8584 	 
H 	 -105.902 	 61.8171 	 -100.635 	 
C 	 -104.797 	 63.2617 	 -101.731 	 
H 	 -103.903 	 63.3445 	 -102.368 	 
H 	 -105.621 	 63.2149 	 -102.462 	 
C 	 -105.019 	 64.5528 	 -100.856 	 
H 	 -106.073 	 64.688 	 -100.599 	 
H 	 -104.358 	 64.6288 	 -100.022 	 
H 	 -104.818 	 65.4359 	 -101.438 	 
S 	 -100.206 	 58.9563 	 -101.562 	 
C 	 -99.0381 	 58.2707 	 -102.685 	 
C 	 -99.6524 	 57.7133 	 -103.776 	 
C 	 -101.061 	 57.9653 	 -103.792 	 
C 	 -101.482 	 58.7474 	 -102.712 	 
H 	 -99.0589 	 57.1543 	 -104.55 	 
C 	 -101.909 	 57.6386 	 -105.067 	 
H 	 -102.249 	 58.5033 	 -105.604 	 
H 	 -102.808 	 57.2717 	 -104.621 	 
C 	 -101.246 	 56.6443 	 -106.023 	 
H 	 -100.978 	 55.7146 	 -105.439 	 
H 	 -100.262 	 56.9556 	 -106.329 	 
C 	 -102.154 	 56.1814 	 -107.134 	 
H 	 -102.506 	 57.0129 	 -107.723 	 
H 	 -103.044 	 55.6964 	 -106.725 	 
H 	 -101.681 	 55.4042 	 -107.767 	 
H 	 -106.275 	 59.775 	 -101.664 	 
H 	 -97.9719 	 58.2107 	 -102.526 	 
