34

S 	 -48.2354 	 -49.9019 	 -76.2852 	 
C 	 -49.5148 	 -49.5666 	 -75.1941 	 
C 	 -50.2568 	 -48.4842 	 -75.5766 	 
C 	 -49.8974 	 -48.0011 	 -76.8809 	 
C 	 -48.8751 	 -48.8063 	 -77.4629 	 
H 	 -50.3324 	 -47.2147 	 -77.4253 	 
C 	 -51.4981 	 -48.0094 	 -74.8742 	 
H 	 -51.3188 	 -48.1736 	 -73.8649 	 
H 	 -52.3363 	 -48.6527 	 -75.136 	 
C 	 -52.0084 	 -46.5876 	 -75.029 	 
H 	 -52.7073 	 -46.3877 	 -74.2375 	 
H 	 -51.1911 	 -45.8796 	 -74.8964 	 
C 	 -52.8774 	 -46.2588 	 -76.2461 	 
H 	 -53.6003 	 -47.0686 	 -76.3854 	 
H 	 -53.4403 	 -45.3525 	 -76.3312 	 
H 	 -52.2301 	 -46.218 	 -77.1684 	 
S 	 -46.3593 	 -48.2211 	 -78.507 	 
C 	 -46.2731 	 -47.984 	 -80.2482 	 
C 	 -47.457 	 -48.3638 	 -80.9043 	 
C 	 -48.5296 	 -48.6565 	 -80.0056 	 
C 	 -48.1164 	 -48.5306 	 -78.6661 	 
H 	 -47.5839 	 -48.4705 	 -81.9823 	 
C 	 -49.919 	 -49.1669 	 -80.4468 	 
H 	 -49.9749 	 -48.8427 	 -81.461 	 
H 	 -50.693 	 -48.693 	 -79.8194 	 
C 	 -50.0882 	 -50.6679 	 -80.548 	 
H 	 -50.9423 	 -50.8349 	 -81.1996 	 
H 	 -50.3539 	 -51.1978 	 -79.5814 	 
C 	 -48.9381 	 -51.4944 	 -81.1806 	 
H 	 -47.9589 	 -51.2467 	 -80.7367 	 
H 	 -48.9339 	 -51.4174 	 -82.2665 	 
H 	 -49.0305 	 -52.5112 	 -80.9332 	 
H 	 -49.718 	 -50.1524 	 -74.2995 	 
H 	 -45.4261 	 -47.7352 	 -80.8359 	 
