34

S 	 -88.2202 	 -31.3866 	 -61.425 	 
C 	 -89.3302 	 -31.873 	 -62.5994 	 
C 	 -90.2412 	 -32.8033 	 -62.0866 	 
C 	 -89.9493 	 -33.2178 	 -60.7877 	 
C 	 -88.9829 	 -32.4265 	 -60.2325 	 
H 	 -90.3526 	 -33.8453 	 -60.01 	 
C 	 -91.4759 	 -33.3316 	 -62.7316 	 
H 	 -91.978 	 -32.5444 	 -63.2367 	 
H 	 -92.2568 	 -33.6096 	 -62.0009 	 
C 	 -91.1549 	 -34.4814 	 -63.5032 	 
H 	 -90.4287 	 -34.1278 	 -64.2175 	 
H 	 -90.6615 	 -35.2264 	 -62.9224 	 
C 	 -92.3904 	 -35.1005 	 -64.0731 	 
H 	 -92.0728 	 -35.9818 	 -64.649 	 
H 	 -93.0344 	 -35.391 	 -63.3128 	 
H 	 -93.0627 	 -34.5214 	 -64.708 	 
S 	 -88.5148 	 -34.291 	 -58.3007 	 
C 	 -87.5642 	 -33.8587 	 -56.9484 	 
C 	 -87.0675 	 -32.586 	 -57.0254 	 
C 	 -87.5683 	 -31.8741 	 -58.1037 	 
C 	 -88.3683 	 -32.6175 	 -58.9099 	 
H 	 -86.3809 	 -32.2122 	 -56.2289 	 
C 	 -86.9817 	 -30.4817 	 -58.3658 	 
H 	 -86.6907 	 -30.3274 	 -59.348 	 
H 	 -86.0035 	 -30.4224 	 -57.8411 	 
C 	 -87.9572 	 -29.3009 	 -57.979 	 
H 	 -87.4806 	 -28.3362 	 -57.9135 	 
H 	 -88.3369 	 -29.4154 	 -56.9824 	 
C 	 -89.2493 	 -29.1601 	 -58.794 	 
H 	 -89.9548 	 -28.6141 	 -58.1691 	 
H 	 -89.7382 	 -30.1202 	 -58.9023 	 
H 	 -89.1115 	 -28.8208 	 -59.7815 	 
H 	 -89.4228 	 -31.4071 	 -63.5476 	 
H 	 -87.1347 	 -34.5936 	 -56.2907 	 
