34

S 	 -13.0764 	 -30.822 	 -105.855 	 
C 	 -13.1755 	 -30.4984 	 -104.13 	 
C 	 -12.9297 	 -31.5737 	 -103.381 	 
C 	 -12.8511 	 -32.7893 	 -104.156 	 
C 	 -12.9517 	 -32.5615 	 -105.548 	 
H 	 -12.5902 	 -33.815 	 -103.813 	 
C 	 -12.5484 	 -31.6101 	 -101.989 	 
H 	 -13.0064 	 -32.4974 	 -101.57 	 
H 	 -12.9492 	 -30.7017 	 -101.513 	 
C 	 -11.0459 	 -31.521 	 -101.708 	 
H 	 -10.9924 	 -31.6604 	 -100.623 	 
H 	 -10.5163 	 -32.3697 	 -102.154 	 
C 	 -10.3239 	 -30.2227 	 -102.059 	 
H 	 -10.9283 	 -29.3495 	 -101.784 	 
H 	 -9.35164 	 -30.1311 	 -101.576 	 
H 	 -10.1227 	 -30.2394 	 -103.099 	 
S 	 -14.8162 	 -33.4376 	 -107.308 	 
C 	 -14.4245 	 -34.7009 	 -108.454 	 
C 	 -13.0811 	 -35.0713 	 -108.275 	 
C 	 -12.3108 	 -34.2295 	 -107.322 	 
C 	 -13.1821 	 -33.5209 	 -106.583 	 
H 	 -12.6483 	 -35.9077 	 -108.862 	 
C 	 -10.8467 	 -34.3852 	 -107.118 	 
H 	 -10.6784 	 -35.5005 	 -107.343 	 
H 	 -10.5719 	 -34.337 	 -106.069 	 
C 	 -9.97149 	 -33.6231 	 -108.067 	 
H 	 -9.942 	 -34.1162 	 -109.02 	 
H 	 -8.94889 	 -33.7602 	 -107.895 	 
C 	 -10.3099 	 -32.1374 	 -108.017 	 
H 	 -11.3603 	 -31.9802 	 -108.323 	 
H 	 -9.70447 	 -31.5248 	 -108.612 	 
H 	 -10.2694 	 -31.7373 	 -107.032 	 
H 	 -13.3618 	 -29.4449 	 -103.809 	 
H 	 -15.1163 	 -35.227 	 -109.085 	 
