34

S 	 -109.362 	 56.2962 	 -94.5887 	 
C 	 -110.361 	 56.2496 	 -95.9858 	 
C 	 -111.647 	 55.8308 	 -95.7321 	 
C 	 -111.875 	 55.4287 	 -94.3706 	 
C 	 -110.689 	 55.5336 	 -93.6626 	 
H 	 -112.755 	 55.0367 	 -93.8287 	 
C 	 -112.759 	 55.7175 	 -96.7924 	 
H 	 -112.601 	 56.3686 	 -97.6413 	 
H 	 -113.745 	 55.988 	 -96.4203 	 
C 	 -112.742 	 54.2795 	 -97.4031 	 
H 	 -111.728 	 54.0977 	 -97.692 	 
H 	 -113.022 	 53.6195 	 -96.537 	 
C 	 -113.711 	 54.1839 	 -98.5149 	 
H 	 -113.606 	 53.2041 	 -98.9908 	 
H 	 -114.705 	 54.5035 	 -98.2675 	 
H 	 -113.356 	 54.8831 	 -99.2689 	 
S 	 -109.761 	 56.4366 	 -91.2763 	 
C 	 -109.81 	 55.4805 	 -89.8317 	 
C 	 -110.212 	 54.1827 	 -90.1456 	 
C 	 -110.654 	 54.0054 	 -91.4428 	 
C 	 -110.431 	 55.1142 	 -92.2555 	 
H 	 -110.32 	 53.3878 	 -89.4667 	 
C 	 -111.197 	 52.6933 	 -91.9444 	 
H 	 -110.425 	 52.0379 	 -91.5823 	 
H 	 -111.168 	 52.5245 	 -93.0357 	 
C 	 -112.623 	 52.2855 	 -91.495 	 
H 	 -113.352 	 52.9017 	 -91.9851 	 
H 	 -112.743 	 52.3804 	 -90.3416 	 
C 	 -112.701 	 50.7901 	 -91.8586 	 
H 	 -112.88 	 50.6055 	 -92.9392 	 
H 	 -113.569 	 50.3693 	 -91.3453 	 
H 	 -111.831 	 50.2739 	 -91.5215 	 
H 	 -109.999 	 56.6086 	 -96.9764 	 
H 	 -109.47 	 55.7701 	 -88.8138 	 
