34

S 	 -97.7258 	 -3.91297 	 -120.074 	 
C 	 -99.0594 	 -4.9773 	 -119.829 	 
C 	 -100.222 	 -4.50268 	 -120.439 	 
C 	 -100.102 	 -3.1072 	 -120.887 	 
C 	 -98.7345 	 -2.68151 	 -120.775 	 
H 	 -100.797 	 -2.37201 	 -121.29 	 
C 	 -101.548 	 -5.19954 	 -120.434 	 
H 	 -101.406 	 -6.20059 	 -120.044 	 
H 	 -101.759 	 -5.40631 	 -121.494 	 
C 	 -102.732 	 -4.52858 	 -119.801 	 
H 	 -103.012 	 -3.5678 	 -120.185 	 
H 	 -103.655 	 -5.03087 	 -120.112 	 
C 	 -102.648 	 -4.47186 	 -118.272 	 
H 	 -101.746 	 -3.85548 	 -117.997 	 
H 	 -103.557 	 -4.04373 	 -117.785 	 
H 	 -102.37 	 -5.49088 	 -117.819 	 
S 	 -97.2999 	 -0.607096 	 -119.78 	 
C 	 -96.9895 	 0.819168 	 -120.651 	 
C 	 -97.8164 	 0.826537 	 -121.81 	 
C 	 -98.466 	 -0.47426 	 -122.065 	 
C 	 -98.2204 	 -1.3801 	 -121.051 	 
H 	 -97.7926 	 1.73361 	 -122.366 	 
C 	 -99.4025 	 -0.783848 	 -123.331 	 
H 	 -100.405 	 -0.930579 	 -122.94 	 
H 	 -98.973 	 -1.66106 	 -123.682 	 
C 	 -99.551 	 0.145672 	 -124.474 	 
H 	 -98.5594 	 0.351992 	 -124.906 	 
H 	 -99.9123 	 1.0631 	 -123.971 	 
C 	 -100.513 	 -0.299195 	 -125.66 	 
H 	 -100.345 	 0.353984 	 -126.558 	 
H 	 -101.578 	 -0.0675985 	 -125.355 	 
H 	 -100.378 	 -1.35135 	 -126.025 	 
H 	 -98.9074 	 -5.95213 	 -119.361 	 
H 	 -96.2889 	 1.69419 	 -120.405 	 
