34

S 	 -38.5231 	 8.33192 	 27.542 	 
C 	 -38.866 	 8.89019 	 29.1735 	 
C 	 -38.9384 	 7.9578 	 30.1838 	 
C 	 -38.8414 	 6.67224 	 29.5572 	 
C 	 -38.6133 	 6.68199 	 28.1723 	 
H 	 -38.9126 	 5.76261 	 30.1004 	 
C 	 -39.1477 	 8.12498 	 31.7113 	 
H 	 -40.186 	 8.24229 	 31.7475 	 
H 	 -38.5867 	 8.98778 	 32.0011 	 
C 	 -38.8386 	 6.94076 	 32.6116 	 
H 	 -39.4136 	 6.00015 	 32.3838 	 
H 	 -37.7782 	 6.69667 	 32.5842 	 
C 	 -39.1673 	 7.1739 	 34.133 	 
H 	 -38.5628 	 7.93239 	 34.6271 	 
H 	 -40.2094 	 7.45766 	 34.2557 	 
H 	 -38.9557 	 6.20448 	 34.5562 	 
S 	 -36.7278 	 5.13714 	 26.7464 	 
C 	 -37.3483 	 3.79004 	 25.8323 	 
C 	 -38.6326 	 3.44455 	 26.2141 	 
C 	 -39.1869 	 4.40698 	 27.1031 	 
C 	 -38.3605 	 5.5193 	 27.308 	 
H 	 -39.1497 	 2.55168 	 25.9304 	 
C 	 -40.4748 	 4.1842 	 27.7898 	 
H 	 -40.3255 	 4.22622 	 28.8545 	 
H 	 -40.8549 	 3.11159 	 27.5658 	 
C 	 -41.6005 	 5.18462 	 27.5021 	 
H 	 -41.4937 	 6.24665 	 27.7571 	 
H 	 -42.4286 	 4.81927 	 28.1357 	 
C 	 -42.0235 	 5.16289 	 26.0185 	 
H 	 -42.9484 	 5.64133 	 25.9991 	 
H 	 -42.1857 	 4.18971 	 25.6088 	 
H 	 -41.235 	 5.56165 	 25.4201 	 
H 	 -38.735 	 9.8504 	 29.532 	 
H 	 -36.6197 	 3.18762 	 25.4009 	 
