34

S 	 -33.631 	 -34.0184 	 -97.2161 	 
C 	 -34.3578 	 -33.4189 	 -98.5705 	 
C 	 -34.7919 	 -32.0704 	 -98.4668 	 
C 	 -34.4265 	 -31.6224 	 -97.1407 	 
C 	 -33.7387 	 -32.5219 	 -96.3482 	 
H 	 -34.4891 	 -30.5723 	 -96.715 	 
C 	 -35.4173 	 -31.32 	 -99.622 	 
H 	 -36.0457 	 -30.5748 	 -99.2198 	 
H 	 -35.9219 	 -31.9741 	 -100.184 	 
C 	 -34.3575 	 -30.5636 	 -100.5 	 
H 	 -33.5381 	 -31.1471 	 -100.995 	 
H 	 -34.8738 	 -29.9959 	 -101.301 	 
C 	 -33.6224 	 -29.4669 	 -99.7238 	 
H 	 -34.1588 	 -28.7637 	 -99.0714 	 
H 	 -32.7612 	 -29.9548 	 -99.2467 	 
H 	 -33.2261 	 -28.8166 	 -100.44 	 
S 	 -33.7899 	 -33.2983 	 -93.7082 	 
C 	 -32.6075 	 -32.5627 	 -92.5851 	 
C 	 -31.9705 	 -31.4578 	 -93.1179 	 
C 	 -32.3816 	 -31.1747 	 -94.4439 	 
C 	 -33.2001 	 -32.2386 	 -94.9935 	 
H 	 -31.2572 	 -30.8919 	 -92.5163 	 
C 	 -31.8413 	 -30.0264 	 -95.2249 	 
H 	 -32.3714 	 -30.0554 	 -96.1978 	 
H 	 -30.7572 	 -30.1299 	 -95.4528 	 
C 	 -31.9688 	 -28.5993 	 -94.6064 	 
H 	 -31.6764 	 -28.5013 	 -93.5858 	 
H 	 -33.0153 	 -28.3237 	 -94.5516 	 
C 	 -31.4385 	 -27.4234 	 -95.4991 	 
H 	 -31.7263 	 -26.4325 	 -95.1278 	 
H 	 -31.908 	 -27.562 	 -96.4823 	 
H 	 -30.3701 	 -27.398 	 -95.6312 	 
H 	 -34.535 	 -33.9787 	 -99.5198 	 
H 	 -32.5105 	 -32.9543 	 -91.5977 	 
