34

S 	 -44.7129 	 10.3013 	 29.6393 	 
C 	 -45.1116 	 11.1996 	 28.2583 	 
C 	 -46.272 	 10.7005 	 27.6653 	 
C 	 -46.8612 	 9.70086 	 28.4999 	 
C 	 -46.2165 	 9.36378 	 29.6748 	 
H 	 -47.7914 	 9.2228 	 28.1919 	 
C 	 -46.955 	 11.3392 	 26.4561 	 
H 	 -46.7115 	 12.3635 	 26.3381 	 
H 	 -48.0306 	 11.2407 	 26.5145 	 
C 	 -46.6021 	 10.6733 	 25.0941 	 
H 	 -47.0973 	 9.68628 	 24.9535 	 
H 	 -46.8756 	 11.2782 	 24.2494 	 
C 	 -45.0682 	 10.4259 	 25.0069 	 
H 	 -44.8165 	 9.6122 	 25.6934 	 
H 	 -44.7731 	 10.1615 	 24.02 	 
H 	 -44.5541 	 11.3579 	 25.3092 	 
S 	 -45.4357 	 6.97642 	 30.7518 	 
C 	 -46.4732 	 6.03873 	 31.7786 	 
C 	 -47.7355 	 6.69153 	 31.7531 	 
C 	 -47.8346 	 7.9083 	 31.1034 	 
C 	 -46.568 	 8.32113 	 30.6348 	 
H 	 -48.5124 	 6.20851 	 32.3492 	 
C 	 -49.1358 	 8.57582 	 30.9522 	 
H 	 -49.9137 	 7.89058 	 31.2629 	 
H 	 -49.2828 	 8.71972 	 29.9285 	 
C 	 -49.326 	 9.84025 	 31.7991 	 
H 	 -50.2611 	 10.2951 	 31.5957 	 
H 	 -48.5658 	 10.6129 	 31.5957 	 
C 	 -49.6416 	 9.53247 	 33.2753 	 
H 	 -50.5839 	 8.96711 	 33.4311 	 
H 	 -49.6804 	 10.4971 	 33.8714 	 
H 	 -48.823 	 8.90073 	 33.5543 	 
H 	 -44.4422 	 11.8601 	 27.7469 	 
H 	 -46.161 	 5.04002 	 32.2046 	 
