34

S 	 -102.524 	 62.1643 	 -5.96296 	 
C 	 -102.604 	 63.4809 	 -4.77703 	 
C 	 -103.887 	 63.9492 	 -4.68497 	 
C 	 -104.732 	 63.408 	 -5.66655 	 
C 	 -104.152 	 62.3784 	 -6.42236 	 
H 	 -105.814 	 63.5942 	 -5.80978 	 
C 	 -104.327 	 65.1111 	 -3.69839 	 
H 	 -105.26 	 65.4731 	 -4.09771 	 
H 	 -103.527 	 65.9327 	 -3.81099 	 
C 	 -104.372 	 64.802 	 -2.28035 	 
H 	 -104.941 	 63.8597 	 -2.18981 	 
H 	 -103.362 	 64.5138 	 -1.93106 	 
C 	 -105.015 	 65.9701 	 -1.49832 	 
H 	 -105.126 	 65.4871 	 -0.488686 	 
H 	 -104.432 	 66.8688 	 -1.45872 	 
H 	 -106.038 	 66.1133 	 -1.83304 	 
S 	 -103.636 	 60.9416 	 -8.76009 	 
C 	 -104.938 	 60.6001 	 -9.85177 	 
C 	 -106.172 	 60.7719 	 -9.22237 	 
C 	 -106.096 	 61.3807 	 -7.90033 	 
C 	 -104.753 	 61.6752 	 -7.58114 	 
H 	 -107.03 	 60.5322 	 -9.71344 	 
C 	 -107.376 	 61.7034 	 -7.31543 	 
H 	 -107.22 	 61.6633 	 -6.16447 	 
H 	 -108.1 	 60.948 	 -7.55035 	 
C 	 -107.849 	 63.0678 	 -7.80059 	 
H 	 -108.203 	 63.0569 	 -8.90226 	 
H 	 -107.074 	 63.761 	 -7.66941 	 
C 	 -109.053 	 63.6244 	 -6.96653 	 
H 	 -108.81 	 63.8695 	 -5.9513 	 
H 	 -109.91 	 62.8658 	 -6.83766 	 
H 	 -109.497 	 64.5032 	 -7.49515 	 
H 	 -101.766 	 63.8456 	 -4.12967 	 
H 	 -104.761 	 60.1958 	 -10.8184 	 
