34

S 	 -121.757 	 64.6702 	 -54.0158 	 
C 	 -121.962 	 66.3206 	 -54.2516 	 
C 	 -122.957 	 66.8213 	 -53.3858 	 
C 	 -123.599 	 65.8516 	 -52.5867 	 
C 	 -123.122 	 64.6048 	 -52.9539 	 
H 	 -124.248 	 65.9928 	 -51.7685 	 
C 	 -123.31 	 68.3208 	 -53.2218 	 
H 	 -122.697 	 68.795 	 -52.4073 	 
H 	 -124.332 	 68.3911 	 -52.8415 	 
C 	 -123.303 	 69.2383 	 -54.4622 	 
H 	 -123.419 	 70.2944 	 -54.2104 	 
H 	 -122.357 	 69.1378 	 -54.9751 	 
C 	 -124.426 	 68.9197 	 -55.4382 	 
H 	 -124.829 	 69.7202 	 -56.1051 	 
H 	 -124.244 	 67.9996 	 -56.0192 	 
H 	 -125.322 	 68.6934 	 -54.8835 	 
S 	 -124.884 	 62.5564 	 -53.1441 	 
C 	 -124.825 	 61.1859 	 -52.0015 	 
C 	 -123.791 	 61.318 	 -51.1374 	 
C 	 -123.043 	 62.5502 	 -51.3476 	 
C 	 -123.562 	 63.3358 	 -52.4159 	 
H 	 -123.532 	 60.5323 	 -50.4294 	 
C 	 -121.774 	 62.7739 	 -50.5299 	 
H 	 -121.902 	 62.6615 	 -49.4868 	 
H 	 -121.585 	 63.9202 	 -50.5901 	 
C 	 -120.521 	 62.0908 	 -50.9903 	 
H 	 -119.545 	 62.4672 	 -50.5388 	 
H 	 -120.434 	 62.1758 	 -52.0192 	 
C 	 -120.417 	 60.6253 	 -50.851 	 
H 	 -119.529 	 60.2329 	 -51.3601 	 
H 	 -121.253 	 60.1868 	 -51.3462 	 
H 	 -120.351 	 60.4466 	 -49.7605 	 
H 	 -121.277 	 66.9371 	 -54.8693 	 
H 	 -125.623 	 60.3683 	 -51.9316 	 
