34

S 	 -112.384 	 50.9576 	 -73.5038 	 
C 	 -112.574 	 50.9694 	 -75.225 	 
C 	 -111.416 	 50.6023 	 -75.8726 	 
C 	 -110.372 	 50.2314 	 -75.0076 	 
C 	 -110.734 	 50.402 	 -73.7163 	 
H 	 -109.386 	 49.886 	 -75.2057 	 
C 	 -111.204 	 50.479 	 -77.3752 	 
H 	 -111.204 	 49.4106 	 -77.6799 	 
H 	 -110.146 	 50.7621 	 -77.5895 	 
C 	 -112.22 	 51.3031 	 -78.3118 	 
H 	 -112.086 	 51.0959 	 -79.3517 	 
H 	 -113.242 	 50.9346 	 -77.9848 	 
C 	 -112.037 	 52.8639 	 -78.0949 	 
H 	 -111.026 	 53.1114 	 -78.39 	 
H 	 -112.793 	 53.4128 	 -78.6149 	 
H 	 -112.192 	 53.0462 	 -77.0435 	 
S 	 -110.652 	 49.1703 	 -71.1637 	 
C 	 -109.269 	 49.3628 	 -70.2097 	 
C 	 -108.302 	 50.0693 	 -70.8921 	 
C 	 -108.615 	 50.3817 	 -72.2252 	 
C 	 -109.967 	 50.1689 	 -72.4774 	 
H 	 -107.306 	 50.0602 	 -70.4532 	 
C 	 -107.49 	 50.8821 	 -73.191 	 
H 	 -107.802 	 51.691 	 -73.7924 	 
H 	 -107.233 	 50.1584 	 -73.9475 	 
C 	 -106.231 	 51.518 	 -72.4987 	 
H 	 -105.599 	 50.7422 	 -72.0545 	 
H 	 -106.484 	 52.2472 	 -71.7007 	 
C 	 -105.388 	 52.3764 	 -73.531 	 
H 	 -104.409 	 52.6638 	 -73.0877 	 
H 	 -105.859 	 53.3506 	 -73.8085 	 
H 	 -105.207 	 51.6517 	 -74.3392 	 
H 	 -113.58 	 51.0872 	 -75.6951 	 
H 	 -109.191 	 48.9759 	 -69.1963 	 
