34

S 	 -102.029 	 0.0535139 	 -104.098 	 
C 	 -103.228 	 -0.119028 	 -105.233 	 
C 	 -104.222 	 -1.05015 	 -104.89 	 
C 	 -103.928 	 -1.55044 	 -103.6 	 
C 	 -102.853 	 -1.01069 	 -102.967 	 
H 	 -104.554 	 -2.24993 	 -103.011 	 
C 	 -105.27 	 -1.62002 	 -105.747 	 
H 	 -105.816 	 -0.732255 	 -106.18 	 
H 	 -106.048 	 -2.06195 	 -105.08 	 
C 	 -104.839 	 -2.6453 	 -106.802 	 
H 	 -104.232 	 -2.24075 	 -107.613 	 
H 	 -104.158 	 -3.41214 	 -106.371 	 
C 	 -106.122 	 -3.31295 	 -107.38 	 
H 	 -105.936 	 -4.01922 	 -108.158 	 
H 	 -106.811 	 -3.90446 	 -106.706 	 
H 	 -106.791 	 -2.65436 	 -107.921 	 
S 	 -101.739 	 -2.91056 	 -101.302 	 
C 	 -101.426 	 -2.55261 	 -99.6281 	 
C 	 -101.887 	 -1.25885 	 -99.3526 	 
C 	 -102.402 	 -0.520343 	 -100.466 	 
C 	 -102.468 	 -1.3133 	 -101.617 	 
H 	 -101.736 	 -0.818513 	 -98.3771 	 
C 	 -102.859 	 0.888614 	 -100.438 	 
H 	 -102.848 	 1.26365 	 -101.457 	 
H 	 -102.098 	 1.49498 	 -99.9648 	 
C 	 -104.255 	 1.11493 	 -99.8115 	 
H 	 -104.312 	 2.10786 	 -99.41 	 
H 	 -104.455 	 0.532519 	 -98.9704 	 
C 	 -105.316 	 0.796006 	 -100.86 	 
H 	 -106.294 	 1.00779 	 -100.479 	 
H 	 -105.412 	 -0.198725 	 -101.195 	 
H 	 -105.199 	 1.43152 	 -101.741 	 
H 	 -103.195 	 0.289031 	 -106.244 	 
H 	 -100.821 	 -3.13551 	 -98.9894 	 
