34

S 	 -116.402 	 31.0304 	 -17.2136 	 
C 	 -117.198 	 29.5842 	 -16.6061 	 
C 	 -118.316 	 29.8794 	 -15.8092 	 
C 	 -118.385 	 31.2889 	 -15.5698 	 
C 	 -117.537 	 32.0124 	 -16.3438 	 
H 	 -118.963 	 31.8543 	 -14.8941 	 
C 	 -119.31 	 28.881 	 -15.219 	 
H 	 -119.065 	 28.011 	 -15.9119 	 
H 	 -120.308 	 29.3445 	 -15.4352 	 
C 	 -119.131 	 28.6569 	 -13.7586 	 
H 	 -118.115 	 28.189 	 -13.6244 	 
H 	 -119.074 	 29.6051 	 -13.2162 	 
C 	 -120.192 	 27.6595 	 -13.139 	 
H 	 -120.12 	 27.6921 	 -12.0207 	 
H 	 -121.243 	 27.8585 	 -13.4589 	 
H 	 -119.927 	 26.6164 	 -13.4533 	 
S 	 -115.85 	 34.1149 	 -15.6889 	 
C 	 -116.391 	 35.7498 	 -15.9762 	 
C 	 -117.634 	 35.813 	 -16.5506 	 
C 	 -118.245 	 34.5166 	 -16.7096 	 
C 	 -117.39 	 33.4572 	 -16.3608 	 
H 	 -117.915 	 36.7888 	 -16.8659 	 
C 	 -119.603 	 34.3017 	 -17.3446 	 
H 	 -120.324 	 34.7863 	 -16.7095 	 
H 	 -119.856 	 33.271 	 -17.3227 	 
C 	 -119.654 	 34.6701 	 -18.8049 	 
H 	 -120.57 	 34.1852 	 -19.3084 	 
H 	 -118.795 	 34.3601 	 -19.3407 	 
C 	 -120.03 	 36.1619 	 -19.056 	 
H 	 -119.243 	 36.9186 	 -18.8454 	 
H 	 -121.014 	 36.3836 	 -18.633 	 
H 	 -120.127 	 36.298 	 -20.1284 	 
H 	 -116.822 	 28.5689 	 -16.8428 	 
H 	 -115.872 	 36.6605 	 -15.7944 	 
