34

S 	 -84.0603 	 -39.2 	 -72.6841 	 
C 	 -85.3489 	 -39.6296 	 -73.8107 	 
C 	 -84.7738 	 -40.2464 	 -74.9411 	 
C 	 -83.3566 	 -40.1821 	 -74.9778 	 
C 	 -82.8493 	 -39.8112 	 -73.7651 	 
H 	 -82.617 	 -40.412 	 -75.7147 	 
C 	 -85.6721 	 -40.8686 	 -76.0847 	 
H 	 -85.5612 	 -40.3594 	 -76.9865 	 
H 	 -86.6602 	 -40.7085 	 -75.7085 	 
C 	 -85.3788 	 -42.4102 	 -76.3876 	 
H 	 -85.8884 	 -42.5938 	 -77.3259 	 
H 	 -84.3293 	 -42.3948 	 -76.6308 	 
C 	 -85.8462 	 -43.3692 	 -75.2608 	 
H 	 -86.9277 	 -43.5175 	 -75.4019 	 
H 	 -85.3067 	 -44.323 	 -75.3372 	 
H 	 -85.5868 	 -42.8883 	 -74.2641 	 
S 	 -80.6125 	 -38.4336 	 -72.9382 	 
C 	 -79.0965 	 -39.2004 	 -73.0226 	 
C 	 -79.2166 	 -40.5855 	 -73.1938 	 
C 	 -80.5578 	 -40.9774 	 -73.42 	 
C 	 -81.4507 	 -39.8919 	 -73.3777 	 
H 	 -78.2336 	 -41.1783 	 -73.2297 	 
C 	 -80.9844 	 -42.3816 	 -73.8247 	 
H 	 -81.2998 	 -42.2667 	 -74.849 	 
H 	 -81.8464 	 -42.8195 	 -73.3018 	 
C 	 -79.8747 	 -43.4418 	 -73.8194 	 
H 	 -78.9586 	 -43.2135 	 -74.3807 	 
H 	 -80.2957 	 -44.2712 	 -74.4009 	 
C 	 -79.6265 	 -43.8988 	 -72.419 	 
H 	 -79.5544 	 -43.0403 	 -71.7225 	 
H 	 -78.6311 	 -44.4284 	 -72.4683 	 
H 	 -80.4191 	 -44.5356 	 -71.9911 	 
H 	 -86.4085 	 -39.6156 	 -73.5692 	 
H 	 -78.1127 	 -38.6686 	 -72.8452 	 
