34

S 	 15.0313 	 -14.9422 	 -124.761 	 
C 	 14.9715 	 -13.4073 	 -125.489 	 
C 	 15.5162 	 -12.4066 	 -124.668 	 
C 	 16.0341 	 -12.9617 	 -123.506 	 
C 	 15.9442 	 -14.3036 	 -123.365 	 
H 	 16.427 	 -12.2922 	 -122.706 	 
C 	 15.4565 	 -10.9006 	 -124.897 	 
H 	 15.765 	 -10.6225 	 -125.959 	 
H 	 16.1305 	 -10.3789 	 -124.143 	 
C 	 14.0429 	 -10.1558 	 -124.733 	 
H 	 13.4471 	 -10.5221 	 -125.483 	 
H 	 13.4989 	 -10.2623 	 -123.807 	 
C 	 14.1378 	 -8.65084 	 -124.843 	 
H 	 13.2849 	 -8.12966 	 -124.483 	 
H 	 15.0727 	 -8.40989 	 -124.277 	 
H 	 14.3721 	 -8.39988 	 -125.929 	 
S 	 14.8975 	 -16.3811 	 -121.94 	 
C 	 15.7705 	 -16.977 	 -120.551 	 
C 	 16.7534 	 -16.0313 	 -120.206 	 
C 	 17.0052 	 -15.04 	 -121.165 	 
C 	 16.1055 	 -15.1097 	 -122.214 	 
H 	 17.3571 	 -16.1909 	 -119.351 	 
C 	 18.0433 	 -13.9997 	 -120.941 	 
H 	 18.1362 	 -13.93 	 -119.83 	 
H 	 17.6899 	 -12.9798 	 -121.264 	 
C 	 19.4043 	 -14.0671 	 -121.623 	 
H 	 20.0272 	 -13.2087 	 -121.212 	 
H 	 19.2272 	 -13.9466 	 -122.734 	 
C 	 20.1077 	 -15.4474 	 -121.403 	 
H 	 20.2141 	 -15.7897 	 -120.362 	 
H 	 21.1145 	 -15.2157 	 -121.831 	 
H 	 19.6461 	 -16.2177 	 -121.975 	 
H 	 14.4867 	 -13.1194 	 -126.472 	 
H 	 15.4261 	 -17.7731 	 -119.901 	 
