34

S 	 -128.275 	 71.0165 	 -65.3263 	 
C 	 -126.88 	 71.2012 	 -64.2843 	 
C 	 -127.255 	 71.2064 	 -62.9854 	 
C 	 -128.635 	 70.9598 	 -62.7235 	 
C 	 -129.366 	 70.8584 	 -63.8799 	 
H 	 -129.019 	 70.8115 	 -61.7279 	 
C 	 -126.244 	 71.4808 	 -61.9279 	 
H 	 -125.328 	 70.9747 	 -62.1845 	 
H 	 -126.617 	 71.1095 	 -60.9673 	 
C 	 -125.953 	 72.9262 	 -61.7447 	 
H 	 -126.962 	 73.3756 	 -61.4228 	 
H 	 -125.326 	 72.9536 	 -60.815 	 
C 	 -125.277 	 73.6313 	 -62.9268 	 
H 	 -125.145 	 74.6906 	 -62.6553 	 
H 	 -124.312 	 73.1574 	 -63.1707 	 
H 	 -125.867 	 73.6701 	 -63.8008 	 
S 	 -131.582 	 69.3098 	 -63.3528 	 
C 	 -133.172 	 69.8699 	 -63.8945 	 
C 	 -133.062 	 71.0831 	 -64.498 	 
C 	 -131.707 	 71.5985 	 -64.4886 	 
C 	 -130.794 	 70.7387 	 -63.9398 	 
H 	 -133.958 	 71.5649 	 -64.732 	 
C 	 -131.43 	 72.8949 	 -65.1521 	 
H 	 -132.266 	 73.0348 	 -65.8414 	 
H 	 -130.597 	 72.7082 	 -65.8488 	 
C 	 -130.994 	 73.9834 	 -64.2353 	 
H 	 -130.732 	 74.9014 	 -64.7743 	 
H 	 -130.047 	 73.7785 	 -63.7506 	 
C 	 -132.106 	 74.544 	 -63.2276 	 
H 	 -131.659 	 75.2401 	 -62.5186 	 
H 	 -132.506 	 73.6989 	 -62.6293 	 
H 	 -132.923 	 75.0031 	 -63.8076 	 
H 	 -125.858 	 71.1406 	 -64.63 	 
H 	 -134.121 	 69.4012 	 -63.7051 	 
