34

S 	 -116.949 	 59.0103 	 -38.5407 	 
C 	 -116.607 	 57.3531 	 -38.4792 	 
C 	 -117.75 	 56.6048 	 -38.4668 	 
C 	 -118.925 	 57.4186 	 -38.481 	 
C 	 -118.742 	 58.781 	 -38.4791 	 
H 	 -119.979 	 57.0206 	 -38.307 	 
C 	 -117.682 	 55.0589 	 -38.3903 	 
H 	 -117.819 	 54.7465 	 -37.3574 	 
H 	 -116.707 	 54.8885 	 -38.7495 	 
C 	 -118.527 	 54.305 	 -39.4001 	 
H 	 -119.433 	 54.1229 	 -38.9166 	 
H 	 -118.746 	 55.0518 	 -40.1667 	 
C 	 -117.937 	 52.963 	 -39.7618 	 
H 	 -116.931 	 53.1648 	 -40.2495 	 
H 	 -117.72 	 52.2085 	 -39.0276 	 
H 	 -118.487 	 52.4104 	 -40.5751 	 
S 	 -119.142 	 60.8527 	 -36.8493 	 
C 	 -120.696 	 61.7797 	 -36.9336 	 
C 	 -121.518 	 61.4044 	 -38.0017 	 
C 	 -121.018 	 60.1886 	 -38.5811 	 
C 	 -119.699 	 59.7957 	 -38.1685 	 
H 	 -122.396 	 62.0235 	 -38.2116 	 
C 	 -121.821 	 59.3888 	 -39.4913 	 
H 	 -121.223 	 58.4853 	 -39.8145 	 
H 	 -121.967 	 59.98 	 -40.3928 	 
C 	 -123.118 	 58.7844 	 -38.8892 	 
H 	 -123.743 	 59.7397 	 -38.7829 	 
H 	 -122.822 	 58.228 	 -37.9327 	 
C 	 -123.797 	 57.751 	 -39.9365 	 
H 	 -124.198 	 58.272 	 -40.8162 	 
H 	 -124.636 	 57.2341 	 -39.4813 	 
H 	 -122.992 	 57.0648 	 -40.226 	 
H 	 -115.652 	 56.8932 	 -38.2757 	 
H 	 -120.867 	 62.749 	 -36.5115 	 
