34

S 	 -113.206 	 18.2828 	 -114.35 	 
C 	 -114.835 	 18.7646 	 -113.998 	 
C 	 -115.804 	 17.7961 	 -114.253 	 
C 	 -115.194 	 16.6471 	 -114.791 	 
C 	 -113.816 	 16.7036 	 -114.875 	 
H 	 -115.62 	 15.7918 	 -115.176 	 
C 	 -117.305 	 17.9739 	 -114.024 	 
H 	 -117.405 	 18.506 	 -113.097 	 
H 	 -117.721 	 16.9729 	 -113.84 	 
C 	 -118.112 	 18.7139 	 -115.094 	 
H 	 -119.101 	 19.1716 	 -114.743 	 
H 	 -117.473 	 19.5423 	 -115.398 	 
C 	 -118.398 	 17.8214 	 -116.341 	 
H 	 -119.009 	 18.2794 	 -117.122 	 
H 	 -117.443 	 17.6015 	 -116.75 	 
H 	 -118.908 	 16.8283 	 -116.17 	 
S 	 -111.728 	 14.9983 	 -114.335 	 
C 	 -110.865 	 14.2808 	 -115.565 	 
C 	 -111.626 	 14.233 	 -116.747 	 
C 	 -112.842 	 15.0149 	 -116.653 	 
C 	 -112.913 	 15.6782 	 -115.418 	 
H 	 -111.262 	 13.8316 	 -117.621 	 
C 	 -113.748 	 15.2014 	 -117.845 	 
H 	 -114.627 	 15.707 	 -117.435 	 
H 	 -114.261 	 14.276 	 -118.035 	 
C 	 -113.244 	 15.7884 	 -119.127 	 
H 	 -112.177 	 15.606 	 -119.281 	 
H 	 -113.256 	 16.8634 	 -118.881 	 
C 	 -113.991 	 15.5212 	 -120.337 	 
H 	 -115.073 	 15.4643 	 -120.195 	 
H 	 -113.769 	 14.4723 	 -120.726 	 
H 	 -113.828 	 16.0537 	 -121.283 	 
H 	 -114.95 	 19.7707 	 -113.693 	 
H 	 -109.895 	 13.7791 	 -115.505 	 
