34

S 	 -88.6878 	 -37.3927 	 -64.7521 	 
C 	 -90.2093 	 -38.2269 	 -64.5838 	 
C 	 -91.2926 	 -37.3423 	 -64.5108 	 
C 	 -90.844 	 -36.0166 	 -64.2543 	 
C 	 -89.4472 	 -35.8535 	 -64.3056 	 
H 	 -91.5527 	 -35.2218 	 -63.9126 	 
C 	 -92.7717 	 -37.7232 	 -64.5042 	 
H 	 -93.3103 	 -36.9772 	 -63.9224 	 
H 	 -92.88 	 -38.5992 	 -63.8909 	 
C 	 -93.3782 	 -38.0315 	 -65.8433 	 
H 	 -93.2386 	 -37.0766 	 -66.461 	 
H 	 -92.6427 	 -38.5971 	 -66.4628 	 
C 	 -94.8227 	 -38.5485 	 -65.8283 	 
H 	 -95.172 	 -38.399 	 -66.8691 	 
H 	 -94.9073 	 -39.5776 	 -65.4968 	 
H 	 -95.5473 	 -37.8878 	 -65.3098 	 
S 	 -87.3421 	 -34.6417 	 -62.9277 	 
C 	 -87.2643 	 -32.9783 	 -62.7595 	 
C 	 -88.341 	 -32.3907 	 -63.4901 	 
C 	 -89.2222 	 -33.29 	 -64.1748 	 
C 	 -88.7912 	 -34.5931 	 -63.987 	 
H 	 -88.6083 	 -31.3357 	 -63.333 	 
C 	 -90.4583 	 -32.9082 	 -64.9434 	 
H 	 -91.3063 	 -33.0229 	 -64.3293 	 
H 	 -90.4616 	 -33.6186 	 -65.6996 	 
C 	 -90.3807 	 -31.5231 	 -65.5353 	 
H 	 -90.1281 	 -30.8119 	 -64.7334 	 
H 	 -91.4069 	 -31.1447 	 -65.7645 	 
C 	 -89.4531 	 -31.2377 	 -66.7785 	 
H 	 -89.6835 	 -30.3888 	 -67.3372 	 
H 	 -89.5141 	 -32.076 	 -67.5175 	 
H 	 -88.4032 	 -31.0661 	 -66.4588 	 
H 	 -90.3675 	 -39.2802 	 -64.7409 	 
H 	 -86.6221 	 -32.4989 	 -62.0556 	 
