34

S 	 -111.753 	 52.3408 	 -94.1532 	 
C 	 -111.685 	 53.6526 	 -95.1852 	 
C 	 -112.707 	 54.5403 	 -95.0001 	 
C 	 -113.326 	 54.2767 	 -93.7664 	 
C 	 -112.798 	 53.1779 	 -93.0783 	 
H 	 -114.017 	 54.8894 	 -93.2845 	 
C 	 -113.048 	 55.7094 	 -95.9416 	 
H 	 -114 	 55.5186 	 -96.3987 	 
H 	 -112.383 	 55.6784 	 -96.7796 	 
C 	 -113.12 	 57.0996 	 -95.2695 	 
H 	 -113.772 	 57.1323 	 -94.3681 	 
H 	 -112.161 	 57.3137 	 -94.8358 	 
C 	 -113.515 	 58.1319 	 -96.3605 	 
H 	 -114.522 	 58.0563 	 -96.6134 	 
H 	 -113.367 	 59.08 	 -95.8629 	 
H 	 -112.932 	 58.1074 	 -97.3516 	 
S 	 -113.417 	 51.0586 	 -91.517 	 
C 	 -113.685 	 51.3234 	 -89.774 	 
C 	 -113.479 	 52.6898 	 -89.4144 	 
C 	 -113.082 	 53.5194 	 -90.5025 	 
C 	 -113.032 	 52.7326 	 -91.6892 	 
H 	 -113.666 	 52.8921 	 -88.4046 	 
C 	 -112.774 	 55 	 -90.4302 	 
H 	 -112.676 	 55.3739 	 -89.3597 	 
H 	 -113.527 	 55.652 	 -90.9296 	 
C 	 -111.405 	 55.4011 	 -91.0499 	 
H 	 -111.236 	 54.9594 	 -92.0283 	 
H 	 -110.571 	 55.0337 	 -90.4877 	 
C 	 -111.286 	 56.8912 	 -91.1292 	 
H 	 -111.999 	 57.3373 	 -91.828 	 
H 	 -110.388 	 57.1123 	 -91.6504 	 
H 	 -111.378 	 57.2363 	 -90.0672 	 
H 	 -111.061 	 53.681 	 -96.0471 	 
H 	 -114.055 	 50.5581 	 -89.0975 	 
