34

S 	 -133.354 	 63.4704 	 -56.4567 	 
C 	 -133.755 	 65.102 	 -55.9677 	 
C 	 -133.365 	 66.0349 	 -56.904 	 
C 	 -132.852 	 65.4003 	 -58.1173 	 
C 	 -132.806 	 64.043 	 -58.0374 	 
H 	 -132.541 	 65.8851 	 -58.9426 	 
C 	 -133.357 	 67.5537 	 -56.681 	 
H 	 -133.554 	 67.8099 	 -55.6403 	 
H 	 -134.146 	 67.949 	 -57.3319 	 
C 	 -131.985 	 68.1653 	 -57.042 	 
H 	 -131.652 	 67.8787 	 -58.0457 	 
H 	 -132.103 	 69.2464 	 -56.9976 	 
C 	 -130.882 	 67.8152 	 -56.0271 	 
H 	 -129.99 	 68.3347 	 -56.2479 	 
H 	 -131.267 	 68.2367 	 -55.119 	 
H 	 -130.727 	 66.7851 	 -55.9767 	 
S 	 -133.861 	 62.5156 	 -60.0961 	 
C 	 -132.658 	 61.7186 	 -61.136 	 
C 	 -131.329 	 61.8602 	 -60.7364 	 
C 	 -131.329 	 62.6966 	 -59.6058 	 
C 	 -132.506 	 63.0958 	 -59.1289 	 
H 	 -130.579 	 61.3671 	 -61.2679 	 
C 	 -130.046 	 63.2076 	 -59.0668 	 
H 	 -129.959 	 64.2542 	 -59.1405 	 
H 	 -129.288 	 63.0306 	 -59.7405 	 
C 	 -129.641 	 62.7229 	 -57.6105 	 
H 	 -129.278 	 61.7312 	 -57.6434 	 
H 	 -130.478 	 62.8313 	 -56.9044 	 
C 	 -128.524 	 63.624 	 -56.9072 	 
H 	 -127.51 	 63.6935 	 -57.44 	 
H 	 -128.215 	 63.3071 	 -55.947 	 
H 	 -128.86 	 64.627 	 -56.8295 	 
H 	 -133.965 	 65.3921 	 -54.949 	 
H 	 -133 	 61.2471 	 -62.0247 	 
