34

S 	 -111.411 	 46.9698 	 -73.5965 	 
C 	 -111.739 	 46.7597 	 -75.2425 	 
C 	 -111.911 	 47.9878 	 -75.8996 	 
C 	 -111.613 	 49.11 	 -75.0777 	 
C 	 -111.353 	 48.7444 	 -73.7321 	 
H 	 -111.624 	 50.0946 	 -75.42 	 
C 	 -112.385 	 48.1374 	 -77.3302 	 
H 	 -112.342 	 47.1223 	 -77.6621 	 
H 	 -111.734 	 48.7992 	 -77.9293 	 
C 	 -113.831 	 48.6608 	 -77.5486 	 
H 	 -114.088 	 48.4291 	 -78.5606 	 
H 	 -114.395 	 48.0221 	 -76.9636 	 
C 	 -114.055 	 50.1776 	 -77.2012 	 
H 	 -113.789 	 50.4144 	 -76.1899 	 
H 	 -113.5 	 50.7881 	 -77.871 	 
H 	 -115.044 	 50.5481 	 -77.3247 	 
S 	 -109.927 	 48.651 	 -71.301 	 
C 	 -109.582 	 50.2058 	 -70.5288 	 
C 	 -109.953 	 51.2846 	 -71.2406 	 
C 	 -110.629 	 50.9244 	 -72.4865 	 
C 	 -110.678 	 49.5308 	 -72.6908 	 
H 	 -109.839 	 52.2836 	 -70.6879 	 
C 	 -111.346 	 51.9506 	 -73.3532 	 
H 	 -112.228 	 51.5291 	 -73.7296 	 
H 	 -110.721 	 52.2519 	 -74.1947 	 
C 	 -111.821 	 53.2263 	 -72.7139 	 
H 	 -110.979 	 53.6988 	 -72.2903 	 
H 	 -112.511 	 53.0056 	 -71.9015 	 
C 	 -112.477 	 54.1925 	 -73.7101 	 
H 	 -113.007 	 55.0622 	 -73.2436 	 
H 	 -113.217 	 53.629 	 -74.2547 	 
H 	 -111.581 	 54.522 	 -74.3558 	 
H 	 -111.915 	 45.8005 	 -75.6262 	 
H 	 -109.386 	 50.2366 	 -69.4317 	 
