34

S 	 -140.447 	 8.62199 	 3.40687 	 
C 	 -141.957 	 7.73906 	 3.26832 	 
C 	 -142.778 	 8.01362 	 4.33581 	 
C 	 -142.059 	 8.74371 	 5.37332 	 
C 	 -140.773 	 9.02943 	 5.09323 	 
H 	 -142.551 	 9.06568 	 6.3496 	 
C 	 -144.267 	 7.71616 	 4.38686 	 
H 	 -144.512 	 6.74403 	 3.92199 	 
H 	 -144.73 	 8.39387 	 3.74359 	 
C 	 -144.902 	 7.82269 	 5.75884 	 
H 	 -144.752 	 8.72174 	 6.33192 	 
H 	 -145.949 	 7.62101 	 5.73192 	 
C 	 -144.428 	 6.6852 	 6.75878 	 
H 	 -143.358 	 6.63695 	 6.93328 	 
H 	 -144.972 	 6.68203 	 7.64714 	 
H 	 -144.704 	 5.73124 	 6.44614 	 
S 	 -139.195 	 11.3681 	 5.33089 	 
C 	 -138.389 	 11.6806 	 6.85347 	 
C 	 -138.466 	 10.5406 	 7.66028 	 
C 	 -139.344 	 9.49324 	 7.20593 	 
C 	 -139.891 	 9.81815 	 5.97654 	 
H 	 -137.781 	 10.4633 	 8.4905 	 
C 	 -139.346 	 8.16103 	 7.94156 	 
H 	 -138.379 	 7.99723 	 8.34672 	 
H 	 -139.543 	 7.49385 	 7.1159 	 
C 	 -140.399 	 8.10648 	 9.06029 	 
H 	 -141.387 	 8.5507 	 8.70102 	 
H 	 -139.905 	 8.67943 	 9.86009 	 
C 	 -140.6 	 6.64848 	 9.54554 	 
H 	 -139.592 	 6.33425 	 9.88723 	 
H 	 -141.067 	 6.01726 	 8.76655 	 
H 	 -141.243 	 6.66696 	 10.3249 	 
H 	 -142.355 	 7.23341 	 2.44517 	 
H 	 -137.773 	 12.5544 	 7.0716 	 
