34

S 	 -129.416 	 67.3713 	 -35.9771 	 
C 	 -129.534 	 66.5312 	 -37.5211 	 
C 	 -128.476 	 65.6567 	 -37.6171 	 
C 	 -127.451 	 65.8551 	 -36.612 	 
C 	 -127.769 	 66.7829 	 -35.699 	 
H 	 -126.542 	 65.2207 	 -36.6024 	 
C 	 -128.242 	 64.7253 	 -38.7266 	 
H 	 -129.141 	 64.1938 	 -38.9958 	 
H 	 -127.548 	 63.9847 	 -38.355 	 
C 	 -127.497 	 65.3226 	 -39.9649 	 
H 	 -127.91 	 64.7987 	 -40.8466 	 
H 	 -127.806 	 66.376 	 -40.0752 	 
C 	 -125.954 	 64.8918 	 -39.9896 	 
H 	 -125.779 	 63.8414 	 -40.165 	 
H 	 -125.489 	 65.4329 	 -40.8706 	 
H 	 -125.542 	 65.1523 	 -39.0086 	 
S 	 -127.7 	 67.0037 	 -32.8908 	 
C 	 -126.24 	 67.5183 	 -32.1497 	 
C 	 -125.173 	 67.7695 	 -33.059 	 
C 	 -125.643 	 67.5428 	 -34.4073 	 
C 	 -126.97 	 67.1908 	 -34.5292 	 
H 	 -124.214 	 68.1734 	 -32.6607 	 
C 	 -124.687 	 67.6623 	 -35.5924 	 
H 	 -124.447 	 68.7238 	 -35.5147 	 
H 	 -125.312 	 67.4433 	 -36.5334 	 
C 	 -123.441 	 66.7788 	 -35.4691 	 
H 	 -123.79 	 65.7542 	 -35.1584 	 
H 	 -122.806 	 67.1596 	 -34.653 	 
C 	 -122.661 	 66.7458 	 -36.7988 	 
H 	 -122.427 	 67.809 	 -37.0077 	 
H 	 -123.225 	 66.5231 	 -37.6604 	 
H 	 -121.829 	 66.0638 	 -36.632 	 
H 	 -130.369 	 66.494 	 -38.1975 	 
H 	 -126.006 	 67.5472 	 -31.0428 	 
