34

S 	 -83.3748 	 -41.7973 	 -74.7329 	 
C 	 -84.4089 	 -41.6293 	 -76.1474 	 
C 	 -84.3479 	 -40.3671 	 -76.6276 	 
C 	 -83.6138 	 -39.4711 	 -75.7815 	 
C 	 -83.0162 	 -40.0586 	 -74.6996 	 
H 	 -83.4068 	 -38.4247 	 -75.9777 	 
C 	 -84.8967 	 -39.8938 	 -77.9712 	 
H 	 -85.3779 	 -38.9934 	 -77.9733 	 
H 	 -85.6336 	 -40.5594 	 -78.534 	 
C 	 -83.6724 	 -39.7799 	 -78.9666 	 
H 	 -84.1788 	 -39.5752 	 -79.9396 	 
H 	 -83.1235 	 -38.8809 	 -78.8686 	 
C 	 -82.7902 	 -41.0141 	 -79.1082 	 
H 	 -83.3565 	 -41.8409 	 -79.6019 	 
H 	 -82.1006 	 -40.7268 	 -79.8949 	 
H 	 -82.2666 	 -41.1585 	 -78.2063 	 
S 	 -82.7465 	 -38.6684 	 -72.3299 	 
C 	 -81.1642 	 -37.9153 	 -71.9094 	 
C 	 -80.2042 	 -38.3664 	 -72.7649 	 
C 	 -80.6741 	 -39.2265 	 -73.8293 	 
C 	 -82.0738 	 -39.4082 	 -73.7667 	 
H 	 -79.1233 	 -38.1077 	 -72.6264 	 
C 	 -79.716 	 -39.7487 	 -74.8614 	 
H 	 -80.4107 	 -39.9311 	 -75.6653 	 
H 	 -79.335 	 -40.6228 	 -74.4567 	 
C 	 -78.5122 	 -38.9224 	 -75.2054 	 
H 	 -77.7133 	 -38.8398 	 -74.3699 	 
H 	 -78.6857 	 -37.8642 	 -75.5248 	 
C 	 -77.8038 	 -39.6677 	 -76.3763 	 
H 	 -77.9278 	 -40.7716 	 -76.2762 	 
H 	 -76.7065 	 -39.4401 	 -76.3542 	 
H 	 -78.1765 	 -39.4231 	 -77.3875 	 
H 	 -84.7333 	 -42.4167 	 -76.859 	 
H 	 -80.9605 	 -37.188 	 -71.1675 	 
