34

S 	 -120.191 	 12.5016 	 -8.07099 	 
C 	 -119.261 	 13.1491 	 -6.65532 	 
C 	 -117.919 	 13.233 	 -6.95168 	 
C 	 -117.678 	 12.9135 	 -8.3238 	 
C 	 -118.808 	 12.4763 	 -9.09203 	 
H 	 -116.645 	 12.9502 	 -8.71007 	 
C 	 -116.744 	 13.625 	 -6.06378 	 
H 	 -116.734 	 14.6727 	 -5.83955 	 
H 	 -115.84 	 13.3869 	 -6.6635 	 
C 	 -116.606 	 12.8653 	 -4.75408 	 
H 	 -117.445 	 13.3376 	 -4.09674 	 
H 	 -116.856 	 11.8489 	 -4.89512 	 
C 	 -115.246 	 13.0683 	 -4.12609 	 
H 	 -115.203 	 12.6561 	 -3.09015 	 
H 	 -114.481 	 12.5732 	 -4.73566 	 
H 	 -114.963 	 14.1269 	 -4.16128 	 
S 	 -119.776 	 13.2196 	 -11.5257 	 
C 	 -119.439 	 12.1795 	 -12.9585 	 
C 	 -118.643 	 11.0782 	 -12.5821 	 
C 	 -118.294 	 11.086 	 -11.1926 	 
C 	 -118.914 	 12.1006 	 -10.4743 	 
H 	 -118.384 	 10.3832 	 -13.3705 	 
C 	 -117.545 	 9.94988 	 -10.667 	 
H 	 -117.173 	 10.2787 	 -9.67982 	 
H 	 -116.732 	 9.85031 	 -11.4361 	 
C 	 -118.356 	 8.64666 	 -10.6906 	 
H 	 -117.687 	 7.75907 	 -10.5679 	 
H 	 -118.791 	 8.62131 	 -11.6268 	 
C 	 -119.466 	 8.71535 	 -9.6371 	 
H 	 -118.943 	 8.70387 	 -8.67466 	 
H 	 -120.131 	 7.80646 	 -9.55239 	 
H 	 -120.035 	 9.64545 	 -9.63029 	 
H 	 -119.711 	 13.2529 	 -5.73315 	 
H 	 -119.625 	 12.6551 	 -13.9259 	 
