34

S 	 -128.719 	 56.4821 	 -63.0799 	 
C 	 -130.297 	 57.1229 	 -63.5016 	 
C 	 -130.772 	 57.9254 	 -62.4624 	 
C 	 -129.821 	 58.0658 	 -61.4296 	 
C 	 -128.83 	 57.1429 	 -61.4864 	 
H 	 -129.906 	 58.8288 	 -60.6372 	 
C 	 -132.06 	 58.7908 	 -62.5146 	 
H 	 -132.314 	 58.7856 	 -61.5242 	 
H 	 -132.891 	 58.3015 	 -63.0575 	 
C 	 -131.758 	 60.1769 	 -63.1012 	 
H 	 -131.168 	 60.8953 	 -62.4626 	 
H 	 -131.376 	 60.0609 	 -64.099 	 
C 	 -132.984 	 60.9527 	 -63.4887 	 
H 	 -133.579 	 61.1553 	 -62.5412 	 
H 	 -132.674 	 61.7299 	 -64.198 	 
H 	 -133.636 	 60.3969 	 -64.1485 	 
S 	 -127.138 	 58.1857 	 -59.5595 	 
C 	 -126.043 	 57.1362 	 -58.7375 	 
C 	 -126.112 	 55.8645 	 -59.2309 	 
C 	 -127.203 	 55.7016 	 -60.1152 	 
C 	 -127.794 	 56.9025 	 -60.4639 	 
H 	 -125.464 	 55.162 	 -58.7785 	 
C 	 -127.696 	 54.2292 	 -60.5494 	 
H 	 -126.878 	 53.6971 	 -61.0696 	 
H 	 -128.514 	 54.3482 	 -61.3116 	 
C 	 -127.937 	 53.2789 	 -59.3757 	 
H 	 -128.715 	 53.6921 	 -58.7068 	 
H 	 -127.012 	 53.2671 	 -58.7806 	 
C 	 -128.418 	 51.8417 	 -59.7454 	 
H 	 -128.54 	 51.2818 	 -58.837 	 
H 	 -127.738 	 51.2979 	 -60.4835 	 
H 	 -129.408 	 51.8055 	 -60.1588 	 
H 	 -130.839 	 57.1474 	 -64.4173 	 
H 	 -125.391 	 57.3942 	 -57.9404 	 
