34

S 	 -133.205 	 7.99423 	 -2.61329 	 
C 	 -131.466 	 8.48039 	 -2.70419 	 
C 	 -130.745 	 7.3747 	 -3.02038 	 
C 	 -131.564 	 6.17769 	 -3.16667 	 
C 	 -132.926 	 6.34208 	 -3.05233 	 
H 	 -131.071 	 5.28952 	 -3.33575 	 
C 	 -129.249 	 7.30688 	 -3.053 	 
H 	 -128.95 	 8.12231 	 -3.65208 	 
H 	 -128.937 	 6.49212 	 -3.66788 	 
C 	 -128.496 	 7.3418 	 -1.80188 	 
H 	 -128.688 	 8.31987 	 -1.33359 	 
H 	 -128.845 	 6.62573 	 -1.02599 	 
C 	 -126.943 	 7.29481 	 -1.94773 	 
H 	 -126.421 	 7.55008 	 -1.00655 	 
H 	 -126.551 	 6.32574 	 -2.06197 	 
H 	 -126.588 	 7.95504 	 -2.70756 	 
S 	 -135.335 	 5.66482 	 -4.07878 	 
C 	 -136.084 	 4.24425 	 -3.41836 	 
C 	 -135.081 	 3.37918 	 -3.11559 	 
C 	 -133.746 	 3.8939 	 -2.95136 	 
C 	 -133.854 	 5.23683 	 -3.12619 	 
H 	 -135.364 	 2.38821 	 -2.92892 	 
C 	 -132.602 	 3.15466 	 -2.32337 	 
H 	 -133.082 	 2.45789 	 -1.62672 	 
H 	 -131.972 	 3.89362 	 -1.75092 	 
C 	 -131.676 	 2.4792 	 -3.30343 	 
H 	 -131.051 	 1.75829 	 -2.7237 	 
H 	 -131.046 	 3.233 	 -3.75234 	 
C 	 -132.451 	 1.53034 	 -4.26431 	 
H 	 -133.286 	 2.044 	 -4.73032 	 
H 	 -132.866 	 0.763582 	 -3.6335 	 
H 	 -131.822 	 1.1287 	 -5.04475 	 
H 	 -131.035 	 9.4626 	 -2.40797 	 
H 	 -137.073 	 3.96159 	 -3.7048 	 
