34

S 	 -49.5766 	 20.2549 	 31.5602 	 
C 	 -48.4746 	 20.2768 	 30.1889 	 
C 	 -48.7801 	 19.2781 	 29.3088 	 
C 	 -49.9424 	 18.5393 	 29.7005 	 
C 	 -50.5194 	 18.9452 	 30.9133 	 
H 	 -50.4765 	 17.7332 	 29.2834 	 
C 	 -48.0449 	 18.8929 	 27.9942 	 
H 	 -48.2933 	 17.8286 	 27.915 	 
H 	 -46.9646 	 18.8983 	 28.1435 	 
C 	 -48.4289 	 19.6215 	 26.6271 	 
H 	 -48.3735 	 20.7232 	 26.7062 	 
H 	 -47.5788 	 19.2569 	 26.0085 	 
C 	 -49.7535 	 19.1017 	 26.0465 	 
H 	 -50.6011 	 19.2374 	 26.732 	 
H 	 -50.0123 	 19.5983 	 25.1392 	 
H 	 -49.699 	 17.985 	 25.8823 	 
S 	 -53.2765 	 19.199 	 31.6023 	 
C 	 -53.9761 	 17.6791 	 32.0009 	 
C 	 -53.0696 	 16.6567 	 32.3296 	 
C 	 -51.7594 	 17.0123 	 31.9825 	 
C 	 -51.6863 	 18.3516 	 31.5549 	 
H 	 -53.5087 	 15.6923 	 32.7335 	 
C 	 -50.6307 	 15.9894 	 32.0598 	 
H 	 -50.5395 	 15.6883 	 33.065 	 
H 	 -49.7335 	 16.6337 	 31.8958 	 
C 	 -50.6419 	 14.8576 	 31.0818 	 
H 	 -50.6402 	 15.2383 	 30.0606 	 
H 	 -51.5198 	 14.247 	 31.1995 	 
C 	 -49.4863 	 13.8271 	 31.202 	 
H 	 -49.3754 	 13.3685 	 32.151 	 
H 	 -48.634 	 14.4526 	 31.1588 	 
H 	 -49.5338 	 13.0963 	 30.3816 	 
H 	 -47.7416 	 21.0184 	 30.0073 	 
H 	 -55.0282 	 17.4818 	 32.0937 	 
