34

S 	 -119.058 	 59.1973 	 -38.4503 	 
C 	 -118.244 	 57.9245 	 -37.5637 	 
C 	 -117.553 	 58.3924 	 -36.4964 	 
C 	 -117.653 	 59.8653 	 -36.4283 	 
C 	 -118.338 	 60.4374 	 -37.4554 	 
H 	 -117.196 	 60.3591 	 -35.6411 	 
C 	 -116.758 	 57.5675 	 -35.4693 	 
H 	 -117.393 	 56.8865 	 -34.9566 	 
H 	 -116.519 	 58.2471 	 -34.6934 	 
C 	 -115.48 	 56.8149 	 -36.0053 	 
H 	 -115.683 	 56.4412 	 -37.0462 	 
H 	 -114.602 	 57.4741 	 -36.2 	 
C 	 -115.05 	 55.711 	 -35.0898 	 
H 	 -114.77 	 56.2187 	 -34.0901 	 
H 	 -115.925 	 55.0857 	 -34.8655 	 
H 	 -114.264 	 55.1518 	 -35.5108 	 
S 	 -117.19 	 62.9455 	 -37.3793 	 
C 	 -118.052 	 64.3299 	 -37.9118 	 
C 	 -119.388 	 64.0197 	 -38.2133 	 
C 	 -119.697 	 62.6516 	 -37.9751 	 
C 	 -118.564 	 61.8968 	 -37.5968 	 
H 	 -120.102 	 64.7923 	 -38.4647 	 
C 	 -121.111 	 62.1184 	 -38.0853 	 
H 	 -121.168 	 61.2088 	 -38.6996 	 
H 	 -121.72 	 62.7523 	 -38.772 	 
C 	 -121.921 	 62.0877 	 -36.74 	 
H 	 -122.936 	 62.1285 	 -36.9935 	 
H 	 -121.704 	 62.9759 	 -36.2002 	 
C 	 -121.507 	 60.9887 	 -35.7973 	 
H 	 -122.052 	 61.1693 	 -34.806 	 
H 	 -120.498 	 61.1936 	 -35.5232 	 
H 	 -121.674 	 59.9044 	 -36.133 	 
H 	 -118.096 	 56.9032 	 -38.0008 	 
H 	 -117.557 	 65.3004 	 -38.1931 	 
