34

S 	 -52.5705 	 13.1987 	 -99.2654 	 
C 	 -52.9192 	 11.5058 	 -99.1635 	 
C 	 -51.7602 	 10.7119 	 -99.023 	 
C 	 -50.6373 	 11.5516 	 -99.2185 	 
C 	 -50.8085 	 12.9379 	 -99.1539 	 
H 	 -49.6695 	 11.1726 	 -99.212 	 
C 	 -51.7801 	 9.23251 	 -98.9378 	 
H 	 -52.6265 	 8.81099 	 -99.4195 	 
H 	 -51.9113 	 9.02331 	 -97.8097 	 
C 	 -50.6007 	 8.39006 	 -99.4487 	 
H 	 -49.6582 	 8.58007 	 -98.9534 	 
H 	 -50.7825 	 7.27016 	 -99.359 	 
C 	 -50.5296 	 8.58715 	 -101.049 	 
H 	 -49.5792 	 8.24078 	 -101.462 	 
H 	 -51.2621 	 7.98342 	 -101.614 	 
H 	 -50.66 	 9.68621 	 -101.364 	 
S 	 -49.9811 	 15.0457 	 -100.756 	 
C 	 -48.5297 	 15.8876 	 -100.268 	 
C 	 -47.933 	 15.2557 	 -99.243 	 
C 	 -48.687 	 14.205 	 -98.6759 	 
C 	 -49.786 	 13.9258 	 -99.4533 	 
H 	 -47.0241 	 15.6113 	 -98.7185 	 
C 	 -48.1672 	 13.3938 	 -97.3713 	 
H 	 -47.1227 	 13.5918 	 -97.3071 	 
H 	 -48.2394 	 12.346 	 -97.4606 	 
C 	 -48.8113 	 13.9468 	 -96.149 	 
H 	 -49.891 	 13.922 	 -96.3885 	 
H 	 -48.6169 	 14.9912 	 -96.0225 	 
C 	 -48.5411 	 13.1704 	 -94.8687 	 
H 	 -48.9264 	 12.1848 	 -94.9886 	 
H 	 -49.105 	 13.7795 	 -94.1988 	 
H 	 -47.5548 	 13.3817 	 -94.5409 	 
H 	 -53.9896 	 11.2091 	 -99.2529 	 
H 	 -48.0468 	 16.8126 	 -100.586 	 
