34

S 	 -5.31065 	 -29.346 	 -113.196 	 
C 	 -6.42496 	 -27.9833 	 -113.031 	 
C 	 -7.68465 	 -28.4366 	 -112.702 	 
C 	 -7.81298 	 -29.8418 	 -112.567 	 
C 	 -6.63935 	 -30.4874 	 -112.847 	 
H 	 -8.71766 	 -30.4147 	 -112.399 	 
C 	 -8.87251 	 -27.4683 	 -112.492 	 
H 	 -9.67848 	 -27.8084 	 -113.106 	 
H 	 -8.73301 	 -26.4997 	 -112.967 	 
C 	 -9.32757 	 -27.4803 	 -111.017 	 
H 	 -10.3125 	 -26.9942 	 -110.789 	 
H 	 -9.40963 	 -28.5637 	 -110.687 	 
C 	 -8.28475 	 -26.8822 	 -110.055 	 
H 	 -8.64762 	 -26.3901 	 -109.09 	 
H 	 -7.54436 	 -27.6936 	 -109.712 	 
H 	 -7.77798 	 -26.0924 	 -110.532 	 
S 	 -5.90854 	 -32.4727 	 -114.601 	 
C 	 -5.97507 	 -34.1382 	 -114.123 	 
C 	 -6.42246 	 -34.2446 	 -112.815 	 
C 	 -6.86375 	 -33.0003 	 -112.244 	 
C 	 -6.53066 	 -31.9321 	 -113.063 	 
H 	 -6.40946 	 -35.1539 	 -112.271 	 
C 	 -6.99921 	 -32.9555 	 -110.694 	 
H 	 -6.20431 	 -32.3377 	 -110.331 	 
H 	 -6.9015 	 -33.9926 	 -110.314 	 
C 	 -8.33528 	 -32.4949 	 -110.157 	 
H 	 -8.7427 	 -31.827 	 -110.785 	 
H 	 -8.26818 	 -31.9969 	 -109.184 	 
C 	 -9.34062 	 -33.6498 	 -110.153 	 
H 	 -9.00787 	 -34.463 	 -109.448 	 
H 	 -9.48252 	 -33.9748 	 -111.227 	 
H 	 -10.2724 	 -33.2517 	 -109.633 	 
H 	 -6.14299 	 -26.944 	 -113.15 	 
H 	 -5.69463 	 -35.0332 	 -114.637 	 
