34

S 	 -37.012 	 -2.37658 	 10.4098 	 
C 	 -36.9614 	 -1.68464 	 12.0371 	 
C 	 -37.7171 	 -2.44072 	 12.9095 	 
C 	 -38.2738 	 -3.58576 	 12.213 	 
C 	 -37.8896 	 -3.76638 	 10.9068 	 
H 	 -38.8142 	 -4.34948 	 12.7351 	 
C 	 -38.0747 	 -2.06718 	 14.3706 	 
H 	 -39.0768 	 -2.54994 	 14.5283 	 
H 	 -38.1924 	 -1.05184 	 14.3946 	 
C 	 -37.0654 	 -2.59909 	 15.5235 	 
H 	 -37.5741 	 -2.38081 	 16.4334 	 
H 	 -36.9014 	 -3.67689 	 15.449 	 
C 	 -35.6421 	 -1.92164 	 15.5345 	 
H 	 -34.9622 	 -2.40647 	 16.2294 	 
H 	 -35.1611 	 -1.82963 	 14.5639 	 
H 	 -35.8221 	 -0.98851 	 16.0406 	 
S 	 -36.6064 	 -5.55902 	 9.31417 	 
C 	 -37.3955 	 -7.0239 	 8.7485 	 
C 	 -38.6845 	 -7.03131 	 9.1726 	 
C 	 -39.0527 	 -5.93867 	 10.0387 	 
C 	 -38.0265 	 -5.01452 	 10.0868 	 
H 	 -39.3678 	 -7.81721 	 9.00269 	 
C 	 -40.386 	 -5.87377 	 10.762 	 
H 	 -41.3177 	 -5.82833 	 10.181 	 
H 	 -40.3882 	 -4.96858 	 11.4335 	 
C 	 -40.6661 	 -7.05096 	 11.7646 	 
H 	 -39.8041 	 -7.25694 	 12.4485 	 
H 	 -40.7 	 -7.97895 	 11.1933 	 
C 	 -42.0851 	 -6.84333 	 12.4725 	 
H 	 -42.9696 	 -6.83096 	 11.7732 	 
H 	 -42.0708 	 -5.83663 	 12.9261 	 
H 	 -42.17 	 -7.65943 	 13.1378 	 
H 	 -36.4356 	 -0.81484 	 12.3013 	 
H 	 -36.9903 	 -7.779 	 8.1376 	 
