34

S 	 -90.6708 	 -34.0274 	 -59.6908 	 
C 	 -90.4801 	 -35.3488 	 -58.5487 	 
C 	 -90.0437 	 -34.7963 	 -57.3175 	 
C 	 -90.104 	 -33.3407 	 -57.3402 	 
C 	 -90.5158 	 -32.8267 	 -58.5078 	 
H 	 -89.8486 	 -32.5447 	 -56.6055 	 
C 	 -89.4757 	 -35.6379 	 -56.1171 	 
H 	 -89.25 	 -34.7737 	 -55.458 	 
H 	 -88.5841 	 -36.0942 	 -56.4158 	 
C 	 -90.4936 	 -36.4949 	 -55.3721 	 
H 	 -91.409 	 -35.9271 	 -55.1851 	 
H 	 -90.7904 	 -37.3738 	 -55.9455 	 
C 	 -89.9907 	 -37.0331 	 -54.0089 	 
H 	 -90.1881 	 -36.2382 	 -53.2952 	 
H 	 -90.6169 	 -37.8948 	 -53.7877 	 
H 	 -88.923 	 -37.2947 	 -53.9647 	 
S 	 -89.4202 	 -30.8606 	 -60.0707 	 
C 	 -89.9222 	 -29.1685 	 -59.8144 	 
C 	 -90.9325 	 -29.0667 	 -58.8368 	 
C 	 -91.2629 	 -30.2985 	 -58.2347 	 
C 	 -90.5148 	 -31.3807 	 -58.7951 	 
H 	 -91.4167 	 -28.1385 	 -58.5656 	 
C 	 -92.3241 	 -30.6034 	 -57.2032 	 
H 	 -92.7088 	 -31.6101 	 -57.2651 	 
H 	 -93.2458 	 -29.9757 	 -57.3107 	 
C 	 -91.8298 	 -30.4362 	 -55.7668 	 
H 	 -91.6079 	 -29.4172 	 -55.5062 	 
H 	 -90.9044 	 -30.8647 	 -55.5559 	 
C 	 -92.8826 	 -30.7596 	 -54.7311 	 
H 	 -92.4645 	 -30.9568 	 -53.7807 	 
H 	 -93.3548 	 -31.7105 	 -54.9854 	 
H 	 -93.8209 	 -30.1758 	 -54.6302 	 
H 	 -90.3788 	 -36.4622 	 -58.9581 	 
H 	 -89.5796 	 -28.1895 	 -60.2413 	 
