34

S 	 -121.972 	 48.176 	 -28.9988 	 
C 	 -120.963 	 47.2867 	 -27.8195 	 
C 	 -120.922 	 45.9267 	 -28.1317 	 
C 	 -121.503 	 45.6487 	 -29.4387 	 
C 	 -121.995 	 46.7801 	 -30.121 	 
H 	 -121.588 	 44.6793 	 -29.9313 	 
C 	 -120.489 	 44.8645 	 -27.1638 	 
H 	 -120.989 	 45.1466 	 -26.1851 	 
H 	 -119.381 	 44.8435 	 -27.1057 	 
C 	 -120.897 	 43.4559 	 -27.5006 	 
H 	 -122.025 	 43.3785 	 -27.6941 	 
H 	 -120.394 	 43.1323 	 -28.4284 	 
C 	 -120.475 	 42.522 	 -26.3841 	 
H 	 -120.692 	 41.5187 	 -26.7582 	 
H 	 -119.432 	 42.6736 	 -26.2058 	 
H 	 -121.012 	 42.6578 	 -25.423 	 
S 	 -123.957 	 46.0527 	 -31.9946 	 
C 	 -123.643 	 46.5278 	 -33.6588 	 
C 	 -122.445 	 47.108 	 -33.8313 	 
C 	 -121.797 	 47.3374 	 -32.5994 	 
C 	 -122.479 	 46.8205 	 -31.5415 	 
H 	 -122.137 	 47.34 	 -34.8949 	 
C 	 -120.403 	 47.8894 	 -32.6011 	 
H 	 -120.069 	 48.3109 	 -31.6304 	 
H 	 -120.281 	 48.708 	 -33.3164 	 
C 	 -119.439 	 46.7048 	 -32.9834 	 
H 	 -119.565 	 46.2074 	 -33.9526 	 
H 	 -119.579 	 45.9402 	 -32.2161 	 
C 	 -118.008 	 47.0981 	 -32.7508 	 
H 	 -117.755 	 48.0077 	 -33.3346 	 
H 	 -117.356 	 46.3788 	 -33.1779 	 
H 	 -117.686 	 47.2639 	 -31.7555 	 
H 	 -120.849 	 47.6764 	 -26.8189 	 
H 	 -124.361 	 46.3666 	 -34.4135 	 
