34

S 	 -133.714 	 30.3483 	 -15.4611 	 
C 	 -132.329 	 29.5177 	 -16.0899 	 
C 	 -132.602 	 28.8714 	 -17.2668 	 
C 	 -134.014 	 28.7584 	 -17.3968 	 
C 	 -134.768 	 29.3672 	 -16.4151 	 
H 	 -134.492 	 28.1774 	 -18.2128 	 
C 	 -131.627 	 28.1183 	 -18.1887 	 
H 	 -131.82 	 27.0387 	 -18.1338 	 
H 	 -130.6 	 28.3141 	 -17.7767 	 
C 	 -131.604 	 28.5872 	 -19.5977 	 
H 	 -132.629 	 28.4586 	 -20.0145 	 
H 	 -131.443 	 29.6703 	 -19.6063 	 
C 	 -130.574 	 27.8378 	 -20.4014 	 
H 	 -130.969 	 26.8946 	 -20.6777 	 
H 	 -130.439 	 28.3683 	 -21.2949 	 
H 	 -129.612 	 27.6715 	 -19.8439 	 
S 	 -137.206 	 30.6431 	 -15.9953 	 
C 	 -138.691 	 29.8383 	 -16.1707 	 
C 	 -138.466 	 28.4488 	 -16.1796 	 
C 	 -137.059 	 28.0792 	 -16.2449 	 
C 	 -136.207 	 29.1809 	 -16.2607 	 
H 	 -139.331 	 27.742 	 -16.2917 	 
C 	 -136.708 	 26.6499 	 -16.5447 	 
H 	 -135.641 	 26.5953 	 -16.3857 	 
H 	 -136.878 	 26.5667 	 -17.6265 	 
C 	 -137.393 	 25.5227 	 -15.7732 	 
H 	 -138.457 	 25.7489 	 -15.7473 	 
H 	 -137.156 	 25.4335 	 -14.705 	 
C 	 -137.146 	 24.0818 	 -16.3727 	 
H 	 -138.048 	 23.4681 	 -16.0897 	 
H 	 -136.178 	 23.6951 	 -16.0146 	 
H 	 -137.099 	 24.2241 	 -17.402 	 
H 	 -131.318 	 29.7097 	 -15.7705 	 
H 	 -139.677 	 30.2774 	 -16.2404 	 
