34

S 	 -41.9435 	 16.3189 	 -101.401 	 
C 	 -43.3693 	 16.2235 	 -100.383 	 
C 	 -44.5332 	 16.6197 	 -101.036 	 
C 	 -44.2636 	 16.9461 	 -102.393 	 
C 	 -42.9385 	 16.7662 	 -102.794 	 
H 	 -44.9784 	 17.3116 	 -103.123 	 
C 	 -45.9816 	 16.5706 	 -100.465 	 
H 	 -46.0786 	 15.8178 	 -99.7331 	 
H 	 -46.6127 	 16.322 	 -101.303 	 
C 	 -46.5172 	 17.8161 	 -99.748 	 
H 	 -46.3647 	 18.677 	 -100.349 	 
H 	 -47.6003 	 17.8249 	 -99.642 	 
C 	 -45.803 	 18.1641 	 -98.3808 	 
H 	 -45.6768 	 17.371 	 -97.5683 	 
H 	 -44.7813 	 18.4618 	 -98.6178 	 
H 	 -46.3609 	 18.9984 	 -97.8511 	 
S 	 -41.3646 	 18.6236 	 -104.14 	 
C 	 -41.1162 	 18.3352 	 -105.9 	 
C 	 -41.7854 	 17.2314 	 -106.333 	 
C 	 -42.4987 	 16.5439 	 -105.324 	 
C 	 -42.3177 	 17.1174 	 -104.066 	 
H 	 -41.8108 	 16.9012 	 -107.36 	 
C 	 -43.4059 	 15.4279 	 -105.633 	 
H 	 -44.1011 	 15.8141 	 -106.375 	 
H 	 -44.0356 	 15.2041 	 -104.786 	 
C 	 -42.674 	 14.1291 	 -106.061 	 
H 	 -42.1757 	 14.1987 	 -107.054 	 
H 	 -43.3731 	 13.3386 	 -106.414 	 
C 	 -41.827 	 13.5354 	 -104.917 	 
H 	 -41.5042 	 12.5567 	 -105.191 	 
H 	 -42.2285 	 13.364 	 -103.984 	 
H 	 -41.0028 	 14.16 	 -104.697 	 
H 	 -43.4017 	 15.8256 	 -99.3586 	 
H 	 -40.288 	 18.9037 	 -106.439 	 
