34

S 	 -108.008 	 69.1687 	 -6.21293 	 
C 	 -107.918 	 70.4483 	 -7.35953 	 
C 	 -107.463 	 69.9864 	 -8.54966 	 
C 	 -107.324 	 68.542 	 -8.55026 	 
C 	 -107.841 	 67.9584 	 -7.4448 	 
H 	 -107.06 	 67.8647 	 -9.37567 	 
C 	 -107.158 	 70.7708 	 -9.73484 	 
H 	 -106.859 	 71.701 	 -9.21455 	 
H 	 -108.066 	 71.0127 	 -10.2881 	 
C 	 -106.033 	 70.3587 	 -10.7856 	 
H 	 -105.137 	 69.9949 	 -10.2977 	 
H 	 -106.609 	 69.6108 	 -11.287 	 
C 	 -105.648 	 71.3603 	 -11.7969 	 
H 	 -105.018 	 70.869 	 -12.5481 	 
H 	 -106.462 	 72.0094 	 -12.1557 	 
H 	 -104.949 	 72.0666 	 -11.296 	 
S 	 -106.989 	 65.7496 	 -6.10899 	 
C 	 -107.358 	 64.1171 	 -6.65825 	 
C 	 -108.164 	 64.2305 	 -7.80549 	 
C 	 -108.601 	 65.5636 	 -8.10894 	 
C 	 -107.954 	 66.4874 	 -7.30875 	 
H 	 -108.542 	 63.2576 	 -8.218 	 
C 	 -109.525 	 65.8749 	 -9.26777 	 
H 	 -108.857 	 66.0569 	 -10.1076 	 
H 	 -110.089 	 66.7624 	 -8.99675 	 
C 	 -110.695 	 64.9819 	 -9.69468 	 
H 	 -110.118 	 64.0845 	 -9.85283 	 
H 	 -111.097 	 65.1627 	 -10.7154 	 
C 	 -111.798 	 64.7817 	 -8.66484 	 
H 	 -111.385 	 64.5472 	 -7.71984 	 
H 	 -112.374 	 63.8555 	 -8.81971 	 
H 	 -112.501 	 65.6579 	 -8.52755 	 
H 	 -108.173 	 71.5413 	 -7.31662 	 
H 	 -107.008 	 63.1585 	 -6.3522 	 
