34

S 	 -97.5529 	 48.6932 	 -98.6597 	 
C 	 -97.276 	 49.9247 	 -97.4092 	 
C 	 -97.5956 	 51.1934 	 -97.8212 	 
C 	 -98.0346 	 51.2115 	 -99.1996 	 
C 	 -98.1136 	 49.9312 	 -99.7482 	 
H 	 -98.37 	 52.0374 	 -99.8414 	 
C 	 -97.1816 	 52.4356 	 -97.0826 	 
H 	 -98.0851 	 52.8941 	 -96.6923 	 
H 	 -96.9336 	 53.2402 	 -97.8092 	 
C 	 -96.0833 	 52.3927 	 -95.9867 	 
H 	 -96.2829 	 51.4497 	 -95.3681 	 
H 	 -95.093 	 52.207 	 -96.5415 	 
C 	 -95.9714 	 53.6277 	 -95.1286 	 
H 	 -96.6407 	 53.5124 	 -94.2522 	 
H 	 -94.9929 	 53.7612 	 -94.7292 	 
H 	 -96.2465 	 54.5577 	 -95.612 	 
S 	 -97.2145 	 49.1995 	 -102.321 	 
C 	 -98.4395 	 49.0072 	 -103.577 	 
C 	 -99.7317 	 49.185 	 -103.09 	 
C 	 -99.7351 	 49.6303 	 -101.733 	 
C 	 -98.5125 	 49.5931 	 -101.127 	 
H 	 -100.545 	 48.9465 	 -103.77 	 
C 	 -101.052 	 49.7367 	 -101.029 	 
H 	 -100.813 	 49.7586 	 -99.9672 	 
H 	 -101.649 	 48.8658 	 -101.011 	 
C 	 -101.85 	 51.0086 	 -101.349 	 
H 	 -102.224 	 50.9826 	 -102.426 	 
H 	 -101.033 	 51.7151 	 -101.364 	 
C 	 -103.072 	 51.3173 	 -100.403 	 
H 	 -103.688 	 52.1687 	 -100.737 	 
H 	 -102.663 	 51.4897 	 -99.3985 	 
H 	 -103.694 	 50.4369 	 -100.332 	 
H 	 -96.9264 	 49.6724 	 -96.353 	 
H 	 -98.2976 	 48.6978 	 -104.596 	 
