34

S 	 -47.9702 	 14.4338 	 24.4394 	 
C 	 -48.4433 	 12.7253 	 24.6245 	 
C 	 -47.5137 	 11.9831 	 25.2952 	 
C 	 -46.4136 	 12.81 	 25.6957 	 
C 	 -46.4775 	 14.1441 	 25.3528 	 
H 	 -45.4893 	 12.3679 	 26.1915 	 
C 	 -47.4354 	 10.4795 	 25.3532 	 
H 	 -48.3875 	 10.1058 	 25.7999 	 
H 	 -46.5747 	 10.195 	 26.0145 	 
C 	 -47.239 	 9.87421 	 23.9034 	 
H 	 -48.0741 	 10.2489 	 23.2666 	 
H 	 -46.3338 	 10.3852 	 23.3863 	 
C 	 -47.1915 	 8.33044 	 23.7624 	 
H 	 -46.2451 	 7.95716 	 24.1354 	 
H 	 -47.9414 	 7.85309 	 24.4207 	 
H 	 -47.2182 	 7.92591 	 22.7408 	 
S 	 -45.8612 	 15.9817 	 27.1808 	 
C 	 -44.6799 	 17.2685 	 26.8494 	 
C 	 -44.085 	 17.0209 	 25.6971 	 
C 	 -44.6429 	 15.8855 	 24.9721 	 
C 	 -45.5793 	 15.2575 	 25.6987 	 
H 	 -43.3081 	 17.7302 	 25.3858 	 
C 	 -44.2533 	 15.5283 	 23.5757 	 
H 	 -44.2097 	 16.43 	 22.9566 	 
H 	 -45.0737 	 14.9491 	 23.2239 	 
C 	 -42.9246 	 14.7386 	 23.5118 	 
H 	 -42.6286 	 14.657 	 22.4852 	 
H 	 -42.9646 	 13.742 	 23.9868 	 
C 	 -41.7354 	 15.3379 	 24.1903 	 
H 	 -40.8309 	 14.7003 	 24.2488 	 
H 	 -41.9995 	 15.5985 	 25.2611 	 
H 	 -41.5063 	 16.2324 	 23.5928 	 
H 	 -49.2004 	 12.3673 	 24.0517 	 
H 	 -44.671 	 18.1612 	 27.3939 	 
