34

S 	 -91.8597 	 -30.6791 	 -73.2135 	 
C 	 -90.9321 	 -32.1527 	 -73.378 	 
C 	 -89.581 	 -31.9994 	 -73.2145 	 
C 	 -89.233 	 -30.63 	 -73.0931 	 
C 	 -90.3411 	 -29.8102 	 -73.0971 	 
H 	 -88.2414 	 -30.2352 	 -72.9635 	 
C 	 -88.6527 	 -33.1629 	 -73.2723 	 
H 	 -88.8373 	 -33.8508 	 -72.4267 	 
H 	 -87.6202 	 -32.8407 	 -73.0725 	 
C 	 -88.7043 	 -34.0647 	 -74.4834 	 
H 	 -88.0106 	 -34.8744 	 -74.4167 	 
H 	 -89.6657 	 -34.5191 	 -74.5937 	 
C 	 -88.3964 	 -33.3402 	 -75.858 	 
H 	 -88.1652 	 -34.1112 	 -76.6705 	 
H 	 -89.1944 	 -32.7025 	 -76.2267 	 
H 	 -87.4974 	 -32.7963 	 -75.7753 	 
S 	 -90.1486 	 -27.8206 	 -71.1215 	 
C 	 -90.3437 	 -26.1638 	 -71.6206 	 
C 	 -90.8665 	 -26.0824 	 -72.8889 	 
C 	 -90.7075 	 -27.3223 	 -73.6559 	 
C 	 -90.3373 	 -28.3622 	 -72.7907 	 
H 	 -91.1915 	 -25.2109 	 -73.33 	 
C 	 -91.2187 	 -27.6148 	 -75.0381 	 
H 	 -91.6943 	 -26.7308 	 -75.3681 	 
H 	 -92.0489 	 -28.3801 	 -74.8961 	 
C 	 -90.0875 	 -28.0429 	 -76.072 	 
H 	 -90.5895 	 -28.8533 	 -76.6569 	 
H 	 -89.2198 	 -28.4236 	 -75.5084 	 
C 	 -89.7802 	 -27.0575 	 -77.1566 	 
H 	 -90.5269 	 -26.921 	 -77.8425 	 
H 	 -88.8906 	 -27.4398 	 -77.6564 	 
H 	 -89.6268 	 -26.0889 	 -76.6878 	 
H 	 -91.3604 	 -33.1361 	 -73.5431 	 
H 	 -90.2189 	 -25.2954 	 -70.9781 	 
