34

S 	 -100.158 	 12.688 	 -122.49 	 
C 	 -101.493 	 12.6242 	 -123.672 	 
C 	 -102.41 	 11.6635 	 -123.465 	 
C 	 -102.053 	 10.9248 	 -122.322 	 
C 	 -100.963 	 11.3637 	 -121.682 	 
H 	 -102.646 	 10.1254 	 -121.924 	 
C 	 -103.688 	 11.5017 	 -124.326 	 
H 	 -103.888 	 10.4292 	 -124.538 	 
H 	 -103.404 	 12.1499 	 -125.201 	 
C 	 -104.952 	 12.1351 	 -123.628 	 
H 	 -104.675 	 13.2695 	 -123.397 	 
H 	 -105.677 	 12.1632 	 -124.362 	 
C 	 -105.559 	 11.3952 	 -122.395 	 
H 	 -105.869 	 10.3479 	 -122.645 	 
H 	 -104.868 	 11.4102 	 -121.505 	 
H 	 -106.445 	 11.8995 	 -122.015 	 
S 	 -98.7904 	 10.7042 	 -120.067 	 
C 	 -99.0805 	 9.93125 	 -118.529 	 
C 	 -100.404 	 9.97858 	 -118.225 	 
C 	 -101.203 	 10.6287 	 -119.245 	 
C 	 -100.504 	 10.8612 	 -120.418 	 
H 	 -100.776 	 9.61939 	 -117.311 	 
C 	 -102.615 	 11.0777 	 -119.064 	 
H 	 -103.299 	 10.2174 	 -118.915 	 
H 	 -102.98 	 11.6841 	 -119.84 	 
C 	 -102.697 	 12.0522 	 -117.88 	 
H 	 -102.337 	 11.5163 	 -116.96 	 
H 	 -103.776 	 12.1094 	 -117.741 	 
C 	 -102.131 	 13.4376 	 -118.165 	 
H 	 -102.213 	 14.0443 	 -117.324 	 
H 	 -102.62 	 13.8574 	 -119.014 	 
H 	 -101.009 	 13.2966 	 -118.346 	 
H 	 -101.366 	 13.2864 	 -124.54 	 
H 	 -98.3119 	 9.55199 	 -117.832 	 
