34

S 	 -57.9202 	 15.0817 	 -89.0858 	 
C 	 -57.1668 	 13.9263 	 -90.2144 	 
C 	 -55.8764 	 14.2606 	 -90.567 	 
C 	 -55.5279 	 15.4907 	 -89.9356 	 
C 	 -56.4965 	 16.0297 	 -89.1097 	 
H 	 -54.6981 	 16.1847 	 -90.0817 	 
C 	 -54.9712 	 13.4724 	 -91.5202 	 
H 	 -54.5103 	 14.1633 	 -92.1281 	 
H 	 -55.5334 	 12.779 	 -92.1929 	 
C 	 -53.8026 	 12.7424 	 -90.8421 	 
H 	 -53.3311 	 13.3553 	 -90.0932 	 
H 	 -54.1002 	 11.8099 	 -90.2843 	 
C 	 -52.7723 	 12.4392 	 -91.9217 	 
H 	 -53.0723 	 11.7273 	 -92.6436 	 
H 	 -52.4017 	 13.3225 	 -92.3292 	 
H 	 -51.9343 	 11.9894 	 -91.4185 	 
S 	 -56.5448 	 17.3546 	 -86.6922 	 
C 	 -56.5843 	 19.1168 	 -86.6743 	 
C 	 -56.2838 	 19.6396 	 -87.9066 	 
C 	 -56.1579 	 18.6198 	 -88.9286 	 
C 	 -56.3687 	 17.3398 	 -88.434 	 
H 	 -56.262 	 20.665 	 -88.1127 	 
C 	 -55.9579 	 18.9737 	 -90.3537 	 
H 	 -55.9815 	 18.0644 	 -90.9994 	 
H 	 -54.9815 	 19.4274 	 -90.3858 	 
C 	 -56.9482 	 19.9343 	 -90.9917 	 
H 	 -56.9668 	 20.9014 	 -90.5239 	 
H 	 -57.9168 	 19.487 	 -90.9564 	 
C 	 -56.6824 	 20.1992 	 -92.4549 	 
H 	 -55.6169 	 20.2607 	 -92.729 	 
H 	 -57.1269 	 21.1422 	 -92.7399 	 
H 	 -57.1845 	 19.4455 	 -93.0926 	 
H 	 -57.6318 	 12.9787 	 -90.6142 	 
H 	 -56.7246 	 19.7382 	 -85.8216 	 
