34

S 	 -62.0427 	 15.3698 	 -74.3273 	 
C 	 -63.5703 	 15.1541 	 -73.6055 	 
C 	 -63.6889 	 13.9461 	 -72.976 	 
C 	 -62.6546 	 13.0325 	 -73.3411 	 
C 	 -61.695 	 13.6677 	 -74.1484 	 
H 	 -62.6388 	 11.9702 	 -73.1093 	 
C 	 -64.993 	 13.4013 	 -72.3912 	 
H 	 -65.1949 	 14.0339 	 -71.5754 	 
H 	 -64.8725 	 12.4548 	 -71.8156 	 
C 	 -66.1437 	 13.5119 	 -73.3273 	 
H 	 -67.062 	 13.2103 	 -72.8498 	 
H 	 -66.3083 	 14.6058 	 -73.6239 	 
C 	 -65.905 	 12.6997 	 -74.6218 	 
H 	 -64.8904 	 12.7819 	 -75.0354 	 
H 	 -65.9522 	 11.5875 	 -74.3618 	 
H 	 -66.7239 	 12.7582 	 -75.3834 	 
S 	 -59.64 	 11.7964 	 -73.9289 	 
C 	 -58.7194 	 11.3809 	 -75.3042 	 
C 	 -58.9997 	 12.145 	 -76.4155 	 
C 	 -60.1091 	 13.048 	 -76.1926 	 
C 	 -60.5596 	 12.9768 	 -74.8674 	 
H 	 -58.4981 	 11.8378 	 -77.3303 	 
C 	 -60.8451 	 13.8969 	 -77.2229 	 
H 	 -60.8149 	 14.9045 	 -76.9571 	 
H 	 -61.8832 	 13.5568 	 -77.0983 	 
C 	 -60.4954 	 13.7676 	 -78.7275 	 
H 	 -60.5546 	 12.6857 	 -78.958 	 
H 	 -59.5066 	 14.0637 	 -78.901 	 
C 	 -61.3052 	 14.6621 	 -79.6786 	 
H 	 -61.155 	 14.3014 	 -80.656 	 
H 	 -61.0469 	 15.7582 	 -79.7479 	 
H 	 -62.3735 	 14.7028 	 -79.5238 	 
H 	 -64.2698 	 15.9218 	 -73.5392 	 
H 	 -58.0425 	 10.6053 	 -75.3416 	 
