34

S 	 -81.9612 	 -31.7572 	 -52.1593 	 
C 	 -80.4165 	 -31.5617 	 -52.9353 	 
C 	 -80.3837 	 -30.3322 	 -53.495 	 
C 	 -81.6473 	 -29.605 	 -53.3888 	 
C 	 -82.6455 	 -30.3064 	 -52.766 	 
H 	 -81.849 	 -28.6046 	 -53.7028 	 
C 	 -79.2354 	 -29.6705 	 -54.1817 	 
H 	 -78.6751 	 -29.0293 	 -53.4939 	 
H 	 -79.6495 	 -28.9298 	 -54.8485 	 
C 	 -78.1691 	 -30.6272 	 -54.84 	 
H 	 -77.4161 	 -30.0797 	 -55.2014 	 
H 	 -77.7332 	 -31.3409 	 -54.1486 	 
C 	 -78.8554 	 -31.4609 	 -55.8768 	 
H 	 -79.3427 	 -31.0234 	 -56.7857 	 
H 	 -78.1638 	 -32.1837 	 -56.1772 	 
H 	 -79.8 	 -31.9757 	 -55.3918 	 
S 	 -84.4825 	 -28.3286 	 -53.2303 	 
C 	 -86.0007 	 -28.3872 	 -52.4525 	 
C 	 -86.0818 	 -29.417 	 -51.5363 	 
C 	 -84.9035 	 -30.1979 	 -51.4715 	 
C 	 -83.9976 	 -29.8055 	 -52.4538 	 
H 	 -86.9772 	 -29.4931 	 -50.9588 	 
C 	 -84.8534 	 -31.5357 	 -50.7073 	 
H 	 -83.8066 	 -31.4438 	 -50.3133 	 
H 	 -84.8392 	 -32.3268 	 -51.3785 	 
C 	 -85.8141 	 -31.769 	 -49.5647 	 
H 	 -86.0403 	 -30.8928 	 -48.961 	 
H 	 -85.5487 	 -32.5352 	 -48.8186 	 
C 	 -87.1213 	 -32.377 	 -50.1461 	 
H 	 -87.0458 	 -33.3431 	 -50.5757 	 
H 	 -87.4277 	 -31.919 	 -51.0546 	 
H 	 -87.9092 	 -32.3483 	 -49.4319 	 
H 	 -79.5583 	 -32.1866 	 -53.0378 	 
H 	 -86.6502 	 -27.5857 	 -52.5282 	 
