34

S 	 -34.0108 	 -9.60877 	 14.2806 	 
C 	 -33.5638 	 -9.23201 	 15.9027 	 
C 	 -33.1359 	 -10.3573 	 16.6414 	 
C 	 -33.3734 	 -11.5424 	 15.8144 	 
C 	 -33.6934 	 -11.2826 	 14.5038 	 
H 	 -33.2243 	 -12.5122 	 16.0749 	 
C 	 -32.836 	 -10.3505 	 18.0921 	 
H 	 -31.857 	 -9.93215 	 18.1488 	 
H 	 -32.7833 	 -11.3358 	 18.5823 	 
C 	 -33.7515 	 -9.56034 	 19.1123 	 
H 	 -33.108 	 -9.2028 	 19.9435 	 
H 	 -34.123 	 -8.75814 	 18.4775 	 
C 	 -35.0256 	 -10.4181 	 19.4899 	 
H 	 -34.8616 	 -11.232 	 20.202 	 
H 	 -35.8252 	 -9.92629 	 19.951 	 
H 	 -35.5638 	 -10.8674 	 18.6507 	 
S 	 -32.46 	 -12.7966 	 12.5927 	 
C 	 -33.4604 	 -13.7704 	 11.5162 	 
C 	 -34.8357 	 -13.6678 	 11.7951 	 
C 	 -35.0478 	 -12.7297 	 12.8717 	 
C 	 -33.8859 	 -12.225 	 13.4296 	 
H 	 -35.5335 	 -14.2188 	 11.2485 	 
C 	 -36.471 	 -12.3253 	 13.1899 	 
H 	 -36.4 	 -11.7643 	 14.1089 	 
H 	 -37.1402 	 -13.151 	 13.1434 	 
C 	 -37.0567 	 -11.3527 	 12.1229 	 
H 	 -37.3344 	 -12.0176 	 11.3768 	 
H 	 -36.3141 	 -10.6319 	 11.6527 	 
C 	 -38.2862 	 -10.4994 	 12.4664 	 
H 	 -38.0752 	 -9.56878 	 13.0397 	 
H 	 -38.8752 	 -11.2131 	 13.0152 	 
H 	 -38.7852 	 -10.2336 	 11.5471 	 
H 	 -33.5463 	 -8.19646 	 16.2471 	 
H 	 -32.968 	 -14.3119 	 10.6588 	 
