34

S 	 -41.458 	 -50.9421 	 -69.5151 	 
C 	 -40.9653 	 -49.2536 	 -69.6119 	 
C 	 -41.3158 	 -48.604 	 -68.4551 	 
C 	 -42.0317 	 -49.4057 	 -67.5085 	 
C 	 -42.3984 	 -50.6869 	 -67.9965 	 
H 	 -42.2808 	 -49.064 	 -66.4579 	 
C 	 -41.0186 	 -47.0621 	 -68.2279 	 
H 	 -40.111 	 -46.7954 	 -68.7276 	 
H 	 -40.8318 	 -46.7997 	 -67.2017 	 
C 	 -42.0972 	 -46.1063 	 -68.7372 	 
H 	 -41.6644 	 -45.13 	 -68.4436 	 
H 	 -42.2151 	 -46.1034 	 -69.8037 	 
C 	 -43.457 	 -46.1854 	 -68.1695 	 
H 	 -44.1357 	 -47.0032 	 -68.5539 	 
H 	 -43.4307 	 -46.1186 	 -67.0817 	 
H 	 -43.9796 	 -45.3213 	 -68.5153 	 
S 	 -42.0338 	 -53.1832 	 -67.0568 	 
C 	 -43.2353 	 -53.8236 	 -66.0264 	 
C 	 -44.4202 	 -53.1165 	 -65.983 	 
C 	 -44.308 	 -51.8703 	 -66.7007 	 
C 	 -43.0327 	 -51.7552 	 -67.256 	 
H 	 -45.1739 	 -53.4108 	 -65.2474 	 
C 	 -45.3497 	 -50.8074 	 -66.8255 	 
H 	 -44.7959 	 -49.8833 	 -66.7661 	 
H 	 -46.007 	 -50.8706 	 -65.9771 	 
C 	 -46.1595 	 -50.7764 	 -68.1505 	 
H 	 -46.7405 	 -49.8646 	 -68.1415 	 
H 	 -46.8347 	 -51.5996 	 -68.2059 	 
C 	 -45.329 	 -50.7805 	 -69.4948 	 
H 	 -44.7546 	 -49.8556 	 -69.587 	 
H 	 -46.02 	 -50.643 	 -70.37 	 
H 	 -44.5414 	 -51.54 	 -69.6047 	 
H 	 -40.623 	 -48.7011 	 -70.452 	 
H 	 -43.0987 	 -54.6845 	 -65.457 	 
