34

S 	 0.892526 	 -25.1122 	 -111.453 	 
C 	 1.63206 	 -25.2457 	 -113.053 	 
C 	 2.27682 	 -26.4673 	 -113.248 	 
C 	 1.93691 	 -27.3985 	 -112.202 	 
C 	 1.16664 	 -26.8598 	 -111.164 	 
H 	 2.29511 	 -28.4612 	 -112.128 	 
C 	 2.90158 	 -26.8519 	 -114.48 	 
H 	 2.86274 	 -25.8781 	 -115.077 	 
H 	 2.18522 	 -27.5212 	 -114.936 	 
C 	 4.32638 	 -27.3226 	 -114.45 	 
H 	 4.99036 	 -26.4699 	 -114.285 	 
H 	 4.53435 	 -28.1025 	 -113.679 	 
C 	 4.50963 	 -28.1358 	 -115.774 	 
H 	 3.81579 	 -28.9677 	 -115.788 	 
H 	 4.19126 	 -27.5805 	 -116.609 	 
H 	 5.54799 	 -28.5336 	 -115.747 	 
S 	 1.38891 	 -26.5708 	 -108.551 	 
C 	 1.00173 	 -27.8696 	 -107.484 	 
C 	 0.459304 	 -28.9204 	 -108.134 	 
C 	 0.485081 	 -28.7457 	 -109.575 	 
C 	 0.835623 	 -27.4335 	 -109.904 	 
H 	 0.16872 	 -29.828 	 -107.629 	 
C 	 -0.000980259 	 -29.7532 	 -110.646 	 
H 	 -0.121654 	 -29.2199 	 -111.537 	 
H 	 -1.05661 	 -30.1425 	 -110.377 	 
C 	 0.941273 	 -30.9833 	 -110.873 	 
H 	 0.918545 	 -31.5266 	 -109.954 	 
H 	 1.86606 	 -30.5451 	 -110.928 	 
C 	 0.490743 	 -31.8738 	 -112.028 	 
H 	 0.707346 	 -32.8994 	 -111.711 	 
H 	 1.01431 	 -31.7831 	 -113.026 	 
H 	 -0.588022 	 -31.7323 	 -112.242 	 
H 	 1.55125 	 -24.5342 	 -113.817 	 
H 	 1.22862 	 -27.9978 	 -106.42 	 
