34

S 	 20.7813 	 -5.53544 	 -115.168 	 
C 	 20.766 	 -6.95084 	 -114.227 	 
C 	 20.9276 	 -6.73682 	 -112.878 	 
C 	 21.2968 	 -5.32935 	 -112.666 	 
C 	 21.2246 	 -4.51213 	 -113.781 	 
H 	 21.4108 	 -4.87587 	 -111.745 	 
C 	 20.7904 	 -7.66577 	 -111.71 	 
H 	 21.732 	 -7.42868 	 -111.271 	 
H 	 20.7638 	 -8.74383 	 -111.948 	 
C 	 19.6217 	 -7.35372 	 -110.782 	 
H 	 19.81 	 -6.38784 	 -110.295 	 
H 	 18.5973 	 -7.40008 	 -111.331 	 
C 	 19.502 	 -8.30539 	 -109.659 	 
H 	 19.2311 	 -9.3628 	 -110.048 	 
H 	 20.3177 	 -8.36095 	 -109.02 	 
H 	 18.6605 	 -7.93902 	 -109.13 	 
S 	 22.4737 	 -2.45097 	 -115.213 	 
C 	 22.3162 	 -0.805652 	 -114.618 	 
C 	 21.4492 	 -0.695287 	 -113.589 	 
C 	 21.0547 	 -1.98148 	 -113.069 	 
C 	 21.4784 	 -3.04917 	 -113.892 	 
H 	 21.1861 	 0.328747 	 -113.216 	 
C 	 20.233 	 -2.03571 	 -111.79 	 
H 	 20.1084 	 -1.05824 	 -111.304 	 
H 	 20.9775 	 -2.63238 	 -111.156 	 
C 	 18.911 	 -2.73245 	 -112.043 	 
H 	 18.9932 	 -3.76524 	 -112.482 	 
H 	 18.3916 	 -2.14659 	 -112.809 	 
C 	 18.0949 	 -2.8288 	 -110.75 	 
H 	 17.6795 	 -1.85229 	 -110.491 	 
H 	 18.6993 	 -3.25587 	 -109.863 	 
H 	 17.276 	 -3.54202 	 -110.951 	 
H 	 20.6086 	 -7.95446 	 -114.711 	 
H 	 22.7262 	 0.00681482 	 -115.241 	 
