34

S 	 -38.9892 	 12.755 	 -5.5761 	 
C 	 -38.7694 	 11.1026 	 -5.93913 	 
C 	 -37.5166 	 10.6251 	 -5.56419 	 
C 	 -36.8289 	 11.6424 	 -4.83927 	 
C 	 -37.4217 	 12.8648 	 -4.8037 	 
H 	 -35.8535 	 11.5328 	 -4.36805 	 
C 	 -37.0772 	 9.21529 	 -5.61222 	 
H 	 -37.9 	 8.54952 	 -5.47369 	 
H 	 -36.5462 	 9.09282 	 -4.66228 	 
C 	 -36.0822 	 8.94377 	 -6.81571 	 
H 	 -36.5922 	 8.32245 	 -7.51246 	 
H 	 -35.8078 	 9.81005 	 -7.38426 	 
C 	 -34.7386 	 8.26706 	 -6.39892 	 
H 	 -34.9185 	 7.35154 	 -5.74789 	 
H 	 -34.1682 	 7.96222 	 -7.31607 	 
H 	 -34.2398 	 8.93107 	 -5.81445 	 
S 	 -38.1151 	 15.1953 	 -3.64783 	 
C 	 -36.9676 	 16.4179 	 -3.39446 	 
C 	 -35.7083 	 15.9985 	 -3.5721 	 
C 	 -35.6314 	 14.6922 	 -4.14239 	 
C 	 -36.8631 	 14.0534 	 -4.10931 	 
H 	 -34.8746 	 16.7571 	 -3.49396 	 
C 	 -34.3791 	 14.1748 	 -4.79157 	 
H 	 -34.157 	 13.234 	 -4.35475 	 
H 	 -33.5968 	 14.8676 	 -4.50037 	 
C 	 -34.4408 	 14.0842 	 -6.30803 	 
H 	 -34.6947 	 15.1898 	 -6.66516 	 
H 	 -35.2488 	 13.4246 	 -6.72828 	 
C 	 -33.1469 	 13.4535 	 -6.97137 	 
H 	 -32.8571 	 12.47 	 -6.55463 	 
H 	 -32.3562 	 14.2398 	 -6.89959 	 
H 	 -33.3149 	 13.339 	 -8.03905 	 
H 	 -39.5648 	 10.5208 	 -6.44856 	 
H 	 -37.1583 	 17.4059 	 -3.04361 	 
