34

S 	 -51.2679 	 20.1447 	 21.9963 	 
C 	 -50.8836 	 21.3714 	 23.2232 	 
C 	 -49.5085 	 21.6608 	 23.2111 	 
C 	 -48.7917 	 20.8838 	 22.2506 	 
C 	 -49.5974 	 19.9512 	 21.6101 	 
H 	 -47.6772 	 20.8799 	 22.0193 	 
C 	 -48.7842 	 22.5391 	 24.1489 	 
H 	 -49.4544 	 22.6421 	 25.0342 	 
H 	 -48.7002 	 23.5003 	 23.8271 	 
C 	 -47.4154 	 22.0351 	 24.7181 	 
H 	 -46.5556 	 22.0295 	 23.9828 	 
H 	 -47.0155 	 22.6759 	 25.524 	 
C 	 -47.4225 	 20.5475 	 25.1846 	 
H 	 -48.0136 	 20.3504 	 26.1005 	 
H 	 -47.6924 	 19.8882 	 24.4348 	 
H 	 -46.4121 	 20.2353 	 25.5075 	 
S 	 -49.7721 	 19.3699 	 18.8439 	 
C 	 -48.5615 	 18.1877 	 18.2522 	 
C 	 -47.6694 	 17.7988 	 19.211 	 
C 	 -48.0922 	 18.122 	 20.5496 	 
C 	 -49.1967 	 18.9859 	 20.5407 	 
H 	 -46.8407 	 17.0752 	 19.0581 	 
C 	 -47.4761 	 17.5583 	 21.8225 	 
H 	 -48.3139 	 17.3703 	 22.5702 	 
H 	 -46.8184 	 18.3349 	 22.303 	 
C 	 -46.7092 	 16.1987 	 21.7009 	 
H 	 -47.4686 	 15.6068 	 21.1172 	 
H 	 -46.799 	 15.7025 	 22.6102 	 
C 	 -45.2391 	 16.2465 	 21.1457 	 
H 	 -45.1318 	 16.722 	 20.1933 	 
H 	 -44.9293 	 15.2139 	 21.1864 	 
H 	 -44.5491 	 16.7728 	 21.8284 	 
H 	 -51.6236 	 21.8955 	 23.8229 	 
H 	 -48.4129 	 18.1468 	 17.1205 	 
