34

S 	 -31.4977 	 18.0693 	 3.77228 	 
C 	 -32.4176 	 16.7359 	 3.25929 	 
C 	 -32.1593 	 15.617 	 4.01948 	 
C 	 -30.9615 	 15.8689 	 4.80224 	 
C 	 -30.4717 	 17.148 	 4.80002 	 
H 	 -30.5946 	 15.053 	 5.49224 	 
C 	 -32.7735 	 14.2077 	 3.91392 	 
H 	 -33.7114 	 14.1698 	 3.35753 	 
H 	 -32.9285 	 13.9544 	 4.98397 	 
C 	 -31.836 	 13.181 	 3.40822 	 
H 	 -31.4672 	 13.4653 	 2.38959 	 
H 	 -31.0051 	 13.344 	 4.08395 	 
C 	 -32.3975 	 11.7361 	 3.33465 	 
H 	 -31.5703 	 11.0425 	 3.13483 	 
H 	 -32.9468 	 11.4326 	 4.23043 	 
H 	 -33.1512 	 11.7639 	 2.52881 	 
S 	 -29.7989 	 19.0559 	 6.54875 	 
C 	 -28.2606 	 19.096 	 7.48446 	 
C 	 -27.6912 	 17.8832 	 7.3187 	 
C 	 -28.2459 	 17.1039 	 6.19638 	 
C 	 -29.3831 	 17.6859 	 5.6619 	 
H 	 -26.8783 	 17.6765 	 7.98399 	 
C 	 -27.7815 	 15.6179 	 5.93155 	 
H 	 -28.1684 	 15.2576 	 4.97195 	 
H 	 -28.3696 	 15.1763 	 6.73745 	 
C 	 -26.2662 	 15.3503 	 5.9091 	 
H 	 -25.6981 	 15.5634 	 6.8279 	 
H 	 -25.8434 	 15.9672 	 5.10491 	 
C 	 -26.0053 	 13.9176 	 5.38147 	 
H 	 -24.9203 	 13.7093 	 5.34244 	 
H 	 -26.4456 	 13.7042 	 4.41813 	 
H 	 -26.4321 	 13.2147 	 6.10641 	 
H 	 -33.1149 	 16.6478 	 2.43909 	 
H 	 -28.3122 	 19.5695 	 8.43144 	 
