34

S 	 -50.5476 	 19.4776 	 26.5457 	 
C 	 -50.4162 	 17.7649 	 26.6045 	 
C 	 -50.5519 	 17.2833 	 27.9237 	 
C 	 -51.0539 	 18.3188 	 28.7887 	 
C 	 -51.2887 	 19.5221 	 28.1559 	 
H 	 -51.2524 	 18.3103 	 29.8862 	 
C 	 -50.5221 	 15.8053 	 28.2077 	 
H 	 -50.5725 	 15.6629 	 29.2892 	 
H 	 -49.5536 	 15.3845 	 27.9239 	 
C 	 -51.6846 	 15.0251 	 27.3774 	 
H 	 -51.5258 	 15.1792 	 26.2501 	 
H 	 -51.6591 	 13.9114 	 27.6647 	 
C 	 -53.1489 	 15.5117 	 27.6695 	 
H 	 -53.8129 	 14.6969 	 27.4266 	 
H 	 -53.4629 	 15.8793 	 28.7185 	 
H 	 -53.3747 	 16.4237 	 27.0989 	 
S 	 -50.267 	 21.909 	 29.061 	 
C 	 -51.3089 	 23.0702 	 29.8299 	 
C 	 -52.5791 	 22.5738 	 29.8384 	 
C 	 -52.6912 	 21.2225 	 29.4668 	 
C 	 -51.5595 	 20.7493 	 28.8261 	 
H 	 -53.3798 	 23.2794 	 30.1893 	 
C 	 -54.0429 	 20.5231 	 29.5653 	 
H 	 -54.759 	 21.0033 	 30.3016 	 
H 	 -53.8642 	 19.4569 	 29.8984 	 
C 	 -54.8207 	 20.5127 	 28.2571 	 
H 	 -54.2666 	 19.884 	 27.6382 	 
H 	 -54.8598 	 21.4791 	 27.8304 	 
C 	 -56.2371 	 19.9688 	 28.4457 	 
H 	 -56.7455 	 20.1793 	 27.5069 	 
H 	 -56.8111 	 20.4798 	 29.2553 	 
H 	 -56.3234 	 18.8638 	 28.5454 	 
H 	 -50.0659 	 17.0791 	 25.7798 	 
H 	 -51.0726 	 24.0532 	 30.0983 	 
