34

S 	 -91.2529 	 -38.2313 	 -62.3409 	 
C 	 -91.4419 	 -39.8155 	 -63.0603 	 
C 	 -91.5305 	 -40.806 	 -62.0828 	 
C 	 -91.5454 	 -40.2684 	 -60.7591 	 
C 	 -91.3904 	 -38.8511 	 -60.6965 	 
H 	 -91.6739 	 -40.8027 	 -59.862 	 
C 	 -91.4333 	 -42.2719 	 -62.4222 	 
H 	 -90.402 	 -42.5334 	 -62.7269 	 
H 	 -91.9382 	 -42.2748 	 -63.3784 	 
C 	 -91.9863 	 -43.383 	 -61.4979 	 
H 	 -91.6859 	 -43.2016 	 -60.4712 	 
H 	 -93.0842 	 -43.3294 	 -61.5517 	 
C 	 -91.5817 	 -44.792 	 -61.9792 	 
H 	 -90.5676 	 -44.8819 	 -61.7888 	 
H 	 -91.9879 	 -45.5732 	 -61.3525 	 
H 	 -91.7214 	 -45.0185 	 -63.0576 	 
S 	 -90.0952 	 -36.8532 	 -59.2592 	 
C 	 -90.7296 	 -36.3706 	 -57.7175 	 
C 	 -91.8435 	 -37.0911 	 -57.3348 	 
C 	 -92.2784 	 -38.0077 	 -58.3599 	 
C 	 -91.4081 	 -37.9942 	 -59.4847 	 
H 	 -92.2027 	 -36.9043 	 -56.3332 	 
C 	 -93.5192 	 -38.886 	 -58.2269 	 
H 	 -93.4692 	 -39.756 	 -58.8664 	 
H 	 -94.4166 	 -38.3792 	 -58.5466 	 
C 	 -93.708 	 -39.5549 	 -56.8677 	 
H 	 -94.5595 	 -40.2086 	 -56.9898 	 
H 	 -93.8143 	 -38.7593 	 -56.1469 	 
C 	 -92.4748 	 -40.4145 	 -56.4263 	 
H 	 -92.8232 	 -41.1039 	 -55.6231 	 
H 	 -91.6638 	 -39.7894 	 -56.1092 	 
H 	 -92.2405 	 -41.0485 	 -57.2749 	 
H 	 -91.1913 	 -39.9815 	 -64.1312 	 
H 	 -90.3006 	 -35.5323 	 -57.1058 	 
