34

S 	 -42.9356 	 -52.1571 	 -71.7731 	 
C 	 -41.377 	 -51.8852 	 -71.0309 	 
C 	 -40.545 	 -52.9795 	 -71.2836 	 
C 	 -41.2379 	 -54.0682 	 -71.8898 	 
C 	 -42.6028 	 -53.8806 	 -72.012 	 
H 	 -40.8495 	 -54.9896 	 -72.2591 	 
C 	 -39.013 	 -53.0274 	 -71.2975 	 
H 	 -38.5891 	 -52.229 	 -70.6604 	 
H 	 -38.5645 	 -52.9096 	 -72.282 	 
C 	 -38.4078 	 -54.3465 	 -70.802 	 
H 	 -38.6249 	 -55.2304 	 -71.5126 	 
H 	 -37.3837 	 -54.003 	 -70.9276 	 
C 	 -38.7734 	 -54.738 	 -69.3084 	 
H 	 -39.8183 	 -54.9267 	 -69.0999 	 
H 	 -38.2557 	 -55.6245 	 -69.0884 	 
H 	 -38.4572 	 -53.9011 	 -68.6471 	 
S 	 -44.3915 	 -54.0983 	 -74.0645 	 
C 	 -45.1051 	 -55.56 	 -74.4234 	 
C 	 -44.6485 	 -56.5453 	 -73.6171 	 
C 	 -43.7058 	 -56.1286 	 -72.5947 	 
C 	 -43.5733 	 -54.7609 	 -72.6279 	 
H 	 -44.8812 	 -57.5639 	 -73.8126 	 
C 	 -42.9789 	 -57.0677 	 -71.6259 	 
H 	 -43.6976 	 -57.6561 	 -71.1057 	 
H 	 -42.3625 	 -56.5067 	 -70.934 	 
C 	 -42.1352 	 -57.9941 	 -72.4333 	 
H 	 -41.4883 	 -57.5151 	 -73.2204 	 
H 	 -42.7098 	 -58.7376 	 -72.9558 	 
C 	 -41.1333 	 -58.7782 	 -71.502 	 
H 	 -40.9963 	 -59.8112 	 -71.8195 	 
H 	 -41.6483 	 -58.7802 	 -70.5466 	 
H 	 -40.167 	 -58.2414 	 -71.405 	 
H 	 -40.9918 	 -50.9514 	 -70.6537 	 
H 	 -45.7018 	 -55.7727 	 -75.2372 	 
