34

S 	 -110.623 	 33.9507 	 -13.9509 	 
C 	 -109.668 	 35.2621 	 -13.2898 	 
C 	 -108.498 	 35.3384 	 -14.0107 	 
C 	 -108.452 	 34.4964 	 -15.2233 	 
C 	 -109.687 	 33.8521 	 -15.4506 	 
H 	 -107.711 	 34.4307 	 -15.9983 	 
C 	 -107.398 	 36.2725 	 -13.6927 	 
H 	 -107.737 	 37.0657 	 -13.011 	 
H 	 -107.084 	 36.6468 	 -14.6622 	 
C 	 -106.196 	 35.6591 	 -13.0758 	 
H 	 -106.352 	 35.2241 	 -12.068 	 
H 	 -105.725 	 34.8073 	 -13.5683 	 
C 	 -105.15 	 36.746 	 -13.0516 	 
H 	 -104.159 	 36.427 	 -12.6324 	 
H 	 -105.048 	 37.2319 	 -13.9969 	 
H 	 -105.52 	 37.6 	 -12.4785 	 
S 	 -110.622 	 34.1604 	 -18.1617 	 
C 	 -110.98 	 32.7564 	 -19.048 	 
C 	 -111.018 	 31.6356 	 -18.2195 	 
C 	 -110.536 	 31.8363 	 -16.8776 	 
C 	 -110.193 	 33.1868 	 -16.6553 	 
H 	 -111.284 	 30.7743 	 -18.7137 	 
C 	 -110.247 	 30.7659 	 -15.8733 	 
H 	 -111.077 	 30.0836 	 -15.9616 	 
H 	 -110.248 	 31.1336 	 -14.8157 	 
C 	 -108.979 	 30 	 -16.1312 	 
H 	 -108.126 	 30.6779 	 -16.046 	 
H 	 -109.079 	 29.8578 	 -17.2339 	 
C 	 -108.705 	 28.6384 	 -15.5019 	 
H 	 -108.393 	 28.7974 	 -14.4647 	 
H 	 -107.787 	 28.1927 	 -15.9427 	 
H 	 -109.518 	 27.9574 	 -15.5632 	 
H 	 -109.817 	 35.8606 	 -12.3976 	 
H 	 -111.277 	 32.7126 	 -20.1319 	 
