34

S 	 -69.889 	 21.731 	 -73.814 	 
C 	 -68.5826 	 22.2341 	 -72.7208 	 
C 	 -67.6265 	 21.2481 	 -72.5959 	 
C 	 -68.0108 	 20.0389 	 -73.2964 	 
C 	 -69.1823 	 20.1443 	 -73.9596 	 
H 	 -67.3711 	 19.1398 	 -73.2127 	 
C 	 -66.4758 	 21.4173 	 -71.6428 	 
H 	 -66.2338 	 22.4798 	 -71.6694 	 
H 	 -65.5491 	 20.8259 	 -71.9903 	 
C 	 -66.7683 	 21.0321 	 -70.1745 	 
H 	 -67.6871 	 21.462 	 -69.7369 	 
H 	 -66.8736 	 19.9524 	 -70.068 	 
C 	 -65.5983 	 21.5215 	 -69.277 	 
H 	 -65.5646 	 20.9448 	 -68.3182 	 
H 	 -64.6259 	 21.2203 	 -69.6635 	 
H 	 -65.4919 	 22.5639 	 -68.9742 	 
S 	 -71.3888 	 18.5999 	 -74.1782 	 
C 	 -71.4042 	 17.4515 	 -75.4924 	 
C 	 -70.3633 	 17.4631 	 -76.3458 	 
C 	 -69.4207 	 18.4484 	 -75.9469 	 
C 	 -69.8601 	 19.1956 	 -74.8123 	 
H 	 -70.2231 	 16.7976 	 -77.1743 	 
C 	 -68.2193 	 18.8009 	 -76.7474 	 
H 	 -67.6012 	 19.6957 	 -76.2516 	 
H 	 -68.6326 	 19.2163 	 -77.6441 	 
C 	 -67.3903 	 17.5498 	 -77.147 	 
H 	 -66.696 	 17.7235 	 -77.9918 	 
H 	 -68.0543 	 16.7346 	 -77.5174 	 
C 	 -66.5639 	 17.0749 	 -76.0093 	 
H 	 -67.139 	 16.9685 	 -75.0658 	 
H 	 -65.6594 	 17.6654 	 -75.8546 	 
H 	 -66.163 	 16.0913 	 -76.2161 	 
H 	 -68.4994 	 23.1531 	 -72.2517 	 
H 	 -72.2416 	 16.7954 	 -75.6035 	 
