34

S 	 -119.459 	 33.3288 	 -112.299 	 
C 	 -119.388 	 31.8871 	 -113.309 	 
C 	 -119.377 	 32.2666 	 -114.634 	 
C 	 -119.433 	 33.6819 	 -114.877 	 
C 	 -119.494 	 34.3934 	 -113.728 	 
H 	 -119.331 	 34.3164 	 -115.769 	 
C 	 -119.316 	 31.3206 	 -115.784 	 
H 	 -120.282 	 31.2651 	 -116.334 	 
H 	 -119.174 	 30.3816 	 -115.377 	 
C 	 -118.186 	 31.4163 	 -116.843 	 
H 	 -118.176 	 32.4111 	 -117.375 	 
H 	 -117.297 	 31.4378 	 -116.183 	 
C 	 -118.124 	 30.2114 	 -117.691 	 
H 	 -118.958 	 30.2721 	 -118.336 	 
H 	 -117.141 	 30.1 	 -118.293 	 
H 	 -118.207 	 29.3124 	 -117.063 	 
S 	 -118.033 	 36.4918 	 -112.779 	 
C 	 -118.737 	 38.0984 	 -113.024 	 
C 	 -119.984 	 38.0439 	 -113.695 	 
C 	 -120.454 	 36.7326 	 -113.953 	 
C 	 -119.497 	 35.8316 	 -113.603 	 
H 	 -120.437 	 39.0013 	 -113.894 	 
C 	 -121.829 	 36.4033 	 -114.495 	 
H 	 -122.251 	 35.5658 	 -113.909 	 
H 	 -121.673 	 35.947 	 -115.488 	 
C 	 -122.96 	 37.5023 	 -114.641 	 
H 	 -122.548 	 38.2486 	 -115.323 	 
H 	 -123.094 	 38.0895 	 -113.698 	 
C 	 -124.279 	 36.931 	 -115.269 	 
H 	 -124.784 	 36.1708 	 -114.625 	 
H 	 -124.086 	 36.5017 	 -116.245 	 
H 	 -125.095 	 37.6295 	 -115.386 	 
H 	 -119.309 	 30.8837 	 -112.899 	 
H 	 -118.312 	 39.0823 	 -112.789 	 
