34

S 	 41.4424 	 -22.0167 	 -124.234 	 
C 	 40.0979 	 -20.9302 	 -124.528 	 
C 	 39.0081 	 -21.6661 	 -125.016 	 
C 	 39.3496 	 -23.0017 	 -125.259 	 
C 	 40.6731 	 -23.4099 	 -124.969 	 
H 	 38.6639 	 -23.8672 	 -125.631 	 
C 	 37.5942 	 -21.1221 	 -125.148 	 
H 	 36.9131 	 -21.7186 	 -125.755 	 
H 	 37.6181 	 -20.1536 	 -125.615 	 
C 	 36.9597 	 -20.8982 	 -123.772 	 
H 	 36.7744 	 -21.8342 	 -123.274 	 
H 	 37.7017 	 -20.2864 	 -123.227 	 
C 	 35.5557 	 -20.1687 	 -123.843 	 
H 	 35.2078 	 -20.1631 	 -122.81 	 
H 	 35.4625 	 -19.1464 	 -124.273 	 
H 	 34.8867 	 -20.7294 	 -124.378 	 
S 	 39.9607 	 -25.9916 	 -124.822 	 
C 	 41.1284 	 -27.1704 	 -124.435 	 
C 	 42.354 	 -26.6595 	 -124.319 	 
C 	 42.4505 	 -25.2534 	 -124.556 	 
C 	 41.2099 	 -24.7575 	 -124.874 	 
H 	 43.2126 	 -27.2575 	 -124.049 	 
C 	 43.7358 	 -24.4664 	 -124.398 	 
H 	 43.6898 	 -24.0532 	 -123.35 	 
H 	 43.5629 	 -23.6528 	 -125.116 	 
C 	 45.058 	 -25.2338 	 -124.622 	 
H 	 45.1528 	 -25.3407 	 -125.657 	 
H 	 44.9979 	 -26.2406 	 -124.21 	 
C 	 46.3634 	 -24.4799 	 -124.054 	 
H 	 46.4665 	 -23.4657 	 -124.413 	 
H 	 47.3025 	 -25.0656 	 -124.252 	 
H 	 46.2527 	 -24.4188 	 -122.973 	 
H 	 39.8404 	 -19.9564 	 -124.294 	 
H 	 40.9104 	 -28.2177 	 -124.211 	 
