34

S 	 -85.2431 	 -44.2853 	 -73.5219 	 
C 	 -84.7489 	 -45.9044 	 -73.9272 	 
C 	 -85.8536 	 -46.6984 	 -74.2825 	 
C 	 -87.0712 	 -45.9579 	 -74.2651 	 
C 	 -86.9336 	 -44.6413 	 -73.9589 	 
H 	 -88.039 	 -46.4217 	 -74.519 	 
C 	 -85.649 	 -48.1151 	 -74.7178 	 
H 	 -85.6856 	 -48.7675 	 -73.8005 	 
H 	 -84.6154 	 -48.1714 	 -75.1044 	 
C 	 -86.6729 	 -48.7634 	 -75.7068 	 
H 	 -86.314 	 -49.7084 	 -75.9531 	 
H 	 -87.6957 	 -48.9175 	 -75.251 	 
C 	 -86.7103 	 -47.9168 	 -77.015 	 
H 	 -87.3827 	 -48.3169 	 -77.8 	 
H 	 -86.8271 	 -46.8245 	 -76.7548 	 
H 	 -85.7253 	 -47.9889 	 -77.4158 	 
S 	 -87.6837 	 -42.14 	 -74.5729 	 
C 	 -89.1628 	 -41.4477 	 -73.8023 	 
C 	 -89.8648 	 -42.3978 	 -73.1078 	 
C 	 -89.1868 	 -43.6594 	 -73.0055 	 
C 	 -88.0195 	 -43.671 	 -73.7283 	 
H 	 -90.7953 	 -42.005 	 -72.7112 	 
C 	 -89.8548 	 -44.8475 	 -72.3689 	 
H 	 -89.1555 	 -45.352 	 -71.7221 	 
H 	 -90.0621 	 -45.4286 	 -73.2799 	 
C 	 -91.1451 	 -44.5377 	 -71.5106 	 
H 	 -91.032 	 -43.5675 	 -70.9782 	 
H 	 -91.0928 	 -45.1891 	 -70.6911 	 
C 	 -92.4917 	 -44.6412 	 -72.1355 	 
H 	 -92.6942 	 -43.9971 	 -72.9815 	 
H 	 -93.2875 	 -44.3646 	 -71.3661 	 
H 	 -92.6893 	 -45.6772 	 -72.3395 	 
H 	 -83.7445 	 -46.3401 	 -73.8705 	 
H 	 -89.6282 	 -40.5223 	 -74.1068 	 
