34

S 	 -124.805 	 18.1361 	 -22.5341 	 
C 	 -123.596 	 18.6566 	 -21.4551 	 
C 	 -122.524 	 19.2522 	 -22.1053 	 
C 	 -122.834 	 19.4698 	 -23.5087 	 
C 	 -124.047 	 18.9297 	 -23.8733 	 
H 	 -122.34 	 20.0362 	 -24.2913 	 
C 	 -121.272 	 19.702 	 -21.4223 	 
H 	 -120.977 	 18.902 	 -20.8054 	 
H 	 -121.479 	 20.5564 	 -20.7866 	 
C 	 -120.196 	 20.0499 	 -22.4013 	 
H 	 -120.208 	 19.2159 	 -23.1238 	 
H 	 -120.495 	 20.8335 	 -23.0574 	 
C 	 -118.786 	 20.2732 	 -21.8734 	 
H 	 -118.82 	 21.1129 	 -21.1197 	 
H 	 -118.398 	 19.4573 	 -21.2688 	 
H 	 -118.039 	 20.4552 	 -22.5994 	 
S 	 -126.006 	 19.7624 	 -25.6021 	 
C 	 -125.833 	 19.3156 	 -27.3662 	 
C 	 -124.765 	 18.4971 	 -27.6219 	 
C 	 -124.075 	 18.2274 	 -26.3815 	 
C 	 -124.585 	 18.7736 	 -25.2452 	 
H 	 -124.544 	 18.1478 	 -28.6071 	 
C 	 -122.793 	 17.4001 	 -26.3258 	 
H 	 -122.925 	 16.651 	 -25.5679 	 
H 	 -122.002 	 18.0368 	 -25.927 	 
C 	 -122.295 	 16.7258 	 -27.654 	 
H 	 -121.277 	 16.4776 	 -27.3893 	 
H 	 -122.152 	 17.4681 	 -28.4377 	 
C 	 -122.968 	 15.3929 	 -28.0518 	 
H 	 -122.254 	 14.5116 	 -27.7915 	 
H 	 -123.204 	 15.2076 	 -29.1076 	 
H 	 -123.742 	 15.249 	 -27.3352 	 
H 	 -123.714 	 18.4781 	 -20.3962 	 
H 	 -126.403 	 19.6833 	 -28.2164 	 
