34

S 	 -97.6999 	 15.2215 	 -119.442 	 
C 	 -96.0273 	 15.8538 	 -119.669 	 
C 	 -95.108 	 14.9757 	 -119.128 	 
C 	 -95.6891 	 13.7737 	 -118.745 	 
C 	 -97.0609 	 13.6402 	 -118.961 	 
H 	 -95.2958 	 12.9191 	 -118.243 	 
C 	 -93.6557 	 15.207 	 -118.967 	 
H 	 -93.5068 	 15.2711 	 -117.855 	 
H 	 -93.2094 	 16.1345 	 -119.262 	 
C 	 -92.7343 	 14.1489 	 -119.608 	 
H 	 -91.8139 	 14.2605 	 -119.129 	 
H 	 -93.1679 	 13.1423 	 -119.355 	 
C 	 -92.5035 	 14.3836 	 -121.185 	 
H 	 -93.4308 	 14.6839 	 -121.67 	 
H 	 -91.7028 	 15.0632 	 -121.509 	 
H 	 -92.172 	 13.4048 	 -121.647 	 
S 	 -99.5637 	 12.9452 	 -117.924 	 
C 	 -99.9084 	 11.249 	 -117.666 	 
C 	 -98.8506 	 10.4498 	 -118.055 	 
C 	 -97.7138 	 11.1192 	 -118.657 	 
C 	 -97.9374 	 12.5369 	 -118.537 	 
H 	 -98.9087 	 9.40462 	 -117.832 	 
C 	 -96.4376 	 10.3301 	 -119.07 	 
H 	 -96.4749 	 9.32194 	 -118.555 	 
H 	 -95.5349 	 10.8299 	 -118.827 	 
C 	 -96.2258 	 10.2177 	 -120.607 	 
H 	 -95.2647 	 9.74551 	 -120.808 	 
H 	 -96.3237 	 11.1693 	 -121.106 	 
C 	 -97.33 	 9.45222 	 -121.243 	 
H 	 -97.5261 	 8.5309 	 -120.746 	 
H 	 -97.1729 	 9.22567 	 -122.244 	 
H 	 -98.2319 	 10.0326 	 -121.228 	 
H 	 -95.8652 	 16.9327 	 -119.864 	 
H 	 -100.761 	 10.8045 	 -117.275 	 
