34

S 	 34.3659 	 -1.85288 	 -119.723 	 
C 	 35.2499 	 -3.3234 	 -120.252 	 
C 	 35.746 	 -3.99067 	 -119.141 	 
C 	 35.6702 	 -3.21124 	 -117.998 	 
C 	 34.9112 	 -2.06118 	 -118.089 	 
H 	 36.0585 	 -3.71684 	 -117.044 	 
C 	 36.4336 	 -5.36494 	 -119.216 	 
H 	 37.4618 	 -5.02469 	 -119.323 	 
H 	 36.3272 	 -5.83499 	 -120.159 	 
C 	 36.251 	 -6.37468 	 -118.075 	 
H 	 36.6771 	 -5.9449 	 -117.188 	 
H 	 35.2075 	 -6.46738 	 -118.048 	 
C 	 36.8667 	 -7.71214 	 -118.38 	 
H 	 37.3271 	 -8.19463 	 -117.484 	 
H 	 36.1109 	 -8.39276 	 -118.759 	 
H 	 37.6448 	 -7.69126 	 -119.148 	 
S 	 32.63 	 -0.889531 	 -117.11 	 
C 	 32.5626 	 -0.296269 	 -115.474 	 
C 	 33.8127 	 -0.241457 	 -114.925 	 
C 	 34.8126 	 -0.928166 	 -115.706 	 
C 	 34.283 	 -1.32368 	 -116.97 	 
H 	 33.8553 	 0.286519 	 -114.026 	 
C 	 36.2838 	 -1.10408 	 -115.213 	 
H 	 36.757 	 -0.13122 	 -115.105 	 
H 	 36.9119 	 -1.54802 	 -115.976 	 
C 	 36.408 	 -2.02026 	 -114.002 	 
H 	 36.208 	 -3.05246 	 -114.383 	 
H 	 35.5813 	 -1.81892 	 -113.275 	 
C 	 37.7436 	 -1.90694 	 -113.344 	 
H 	 38.087 	 -2.83404 	 -112.868 	 
H 	 37.6546 	 -1.21065 	 -112.615 	 
H 	 38.5193 	 -1.59545 	 -114.061 	 
H 	 35.2406 	 -3.69696 	 -121.282 	 
H 	 31.7163 	 0.266025 	 -115.092 	 
