34

S 	 -58.0496 	 -1.77743 	 -30.6985 	 
C 	 -57.9518 	 -0.0625277 	 -30.8773 	 
C 	 -57.8666 	 0.60778 	 -29.6802 	 
C 	 -57.7791 	 -0.291515 	 -28.622 	 
C 	 -57.9793 	 -1.60561 	 -29.0127 	 
H 	 -57.6504 	 -0.132142 	 -27.5507 	 
C 	 -57.7671 	 2.11864 	 -29.6057 	 
H 	 -57.9552 	 2.50594 	 -30.5728 	 
H 	 -56.7593 	 2.32302 	 -29.2949 	 
C 	 -58.7903 	 2.76035 	 -28.6444 	 
H 	 -58.6751 	 2.34779 	 -27.6409 	 
H 	 -58.6633 	 3.86019 	 -28.583 	 
C 	 -60.2908 	 2.51005 	 -29.0008 	 
H 	 -60.9043 	 3.35928 	 -28.652 	 
H 	 -60.4482 	 2.39909 	 -30.0497 	 
H 	 -60.6708 	 1.66543 	 -28.438 	 
S 	 -59.6857 	 -3.38378 	 -27.9739 	 
C 	 -59.1317 	 -4.48828 	 -26.7686 	 
C 	 -57.8551 	 -4.22559 	 -26.3335 	 
C 	 -57.2234 	 -3.1891 	 -27.1535 	 
C 	 -58.1309 	 -2.67007 	 -28.0366 	 
H 	 -57.4128 	 -4.83038 	 -25.5414 	 
C 	 -55.8768 	 -2.64915 	 -26.9836 	 
H 	 -55.579 	 -2.89509 	 -25.9768 	 
H 	 -55.928 	 -1.57584 	 -27.2118 	 
C 	 -54.8587 	 -2.99914 	 -28.0762 	 
H 	 -55.2525 	 -2.46806 	 -28.9942 	 
H 	 -54.5619 	 -4.04675 	 -28.1831 	 
C 	 -53.4728 	 -2.31925 	 -27.9095 	 
H 	 -53.1365 	 -2.48884 	 -26.9437 	 
H 	 -53.5322 	 -1.23283 	 -27.9703 	 
H 	 -52.7405 	 -2.72426 	 -28.6717 	 
H 	 -57.9312 	 0.400083 	 -31.8049 	 
H 	 -59.9518 	 -5.07958 	 -26.2902 	 
