34

S 	 -111.454 	 55.7292 	 -91.3986 	 
C 	 -110.753 	 54.7433 	 -90.0951 	 
C 	 -109.485 	 54.3203 	 -90.4871 	 
C 	 -109.088 	 54.8748 	 -91.8065 	 
C 	 -110.008 	 55.7419 	 -92.376 	 
H 	 -108.087 	 54.6663 	 -92.1698 	 
C 	 -108.691 	 53.4034 	 -89.5629 	 
H 	 -109.133 	 52.4523 	 -89.8234 	 
H 	 -108.885 	 53.5455 	 -88.4327 	 
C 	 -107.139 	 53.3558 	 -89.8275 	 
H 	 -106.933 	 53.4102 	 -90.8838 	 
H 	 -106.832 	 54.2759 	 -89.3717 	 
C 	 -106.573 	 52.1707 	 -89.0121 	 
H 	 -105.466 	 52.2705 	 -89.0722 	 
H 	 -106.822 	 52.2229 	 -87.9685 	 
H 	 -106.758 	 51.2235 	 -89.295 	 
S 	 -110.969 	 56.3632 	 -94.9346 	 
C 	 -109.826 	 57.2823 	 -95.9976 	 
C 	 -108.838 	 57.8966 	 -95.2389 	 
C 	 -108.855 	 57.4723 	 -93.8517 	 
C 	 -109.878 	 56.5242 	 -93.5951 	 
H 	 -108.261 	 58.7159 	 -95.6329 	 
C 	 -107.992 	 58.0826 	 -92.8476 	 
H 	 -107.366 	 58.7313 	 -93.3153 	 
H 	 -107.252 	 57.4298 	 -92.3567 	 
C 	 -108.674 	 58.8105 	 -91.7369 	 
H 	 -109.177 	 58.0368 	 -91.1522 	 
H 	 -109.323 	 59.5468 	 -92.0672 	 
C 	 -107.575 	 59.4504 	 -90.8351 	 
H 	 -108.058 	 60.0752 	 -90.0762 	 
H 	 -106.788 	 60.0093 	 -91.2809 	 
H 	 -107.174 	 58.7014 	 -90.1902 	 
H 	 -111.179 	 54.153 	 -89.281 	 
H 	 -110.097 	 57.7196 	 -96.8705 	 
