34

S 	 16.222 	 -10.8465 	 -121.562 	 
C 	 14.5162 	 -10.3494 	 -121.774 	 
C 	 13.7718 	 -11.3803 	 -122.358 	 
C 	 14.6736 	 -12.4739 	 -122.794 	 
C 	 15.942 	 -12.3937 	 -122.265 	 
H 	 14.3568 	 -13.3269 	 -123.279 	 
C 	 12.2051 	 -11.3084 	 -122.55 	 
H 	 11.7827 	 -10.9051 	 -121.598 	 
H 	 11.7925 	 -12.3429 	 -122.683 	 
C 	 11.6891 	 -10.4113 	 -123.672 	 
H 	 12.1583 	 -9.44792 	 -123.463 	 
H 	 12.1058 	 -10.6648 	 -124.646 	 
C 	 10.185 	 -10.2079 	 -123.61 	 
H 	 9.60555 	 -11.0561 	 -123.998 	 
H 	 9.89621 	 -9.87927 	 -122.674 	 
H 	 9.95801 	 -9.42386 	 -124.239 	 
S 	 18.2651 	 -13.2199 	 -123.431 	 
C 	 18.9231 	 -14.786 	 -123.005 	 
C 	 18.2066 	 -15.4231 	 -122.041 	 
C 	 17.0695 	 -14.6147 	 -121.573 	 
C 	 16.9713 	 -13.4097 	 -122.27 	 
H 	 18.3473 	 -16.502 	 -121.606 	 
C 	 16.0566 	 -15.2215 	 -120.541 	 
H 	 15.1725 	 -14.5676 	 -120.615 	 
H 	 16.4588 	 -15.0861 	 -119.553 	 
C 	 15.693 	 -16.7263 	 -120.715 	 
H 	 15.0254 	 -16.9089 	 -119.852 	 
H 	 16.6513 	 -17.2496 	 -120.593 	 
C 	 15.0102 	 -17.0804 	 -122.055 	 
H 	 14.5899 	 -16.1852 	 -122.551 	 
H 	 14.1971 	 -17.8347 	 -122.012 	 
H 	 15.7523 	 -17.4682 	 -122.756 	 
H 	 14.1589 	 -9.42914 	 -121.402 	 
H 	 19.6535 	 -15.2511 	 -123.623 	 
