34

S 	 -126.426 	 64.2309 	 -56.6862 	 
C 	 -125.635 	 64.5343 	 -58.1623 	 
C 	 -125.842 	 65.7616 	 -58.6574 	 
C 	 -126.793 	 66.5167 	 -57.8571 	 
C 	 -127.199 	 65.7839 	 -56.7599 	 
H 	 -127.144 	 67.5781 	 -57.9005 	 
C 	 -125.319 	 66.3261 	 -59.905 	 
H 	 -126.099 	 66.6493 	 -60.5808 	 
H 	 -124.762 	 65.6036 	 -60.4374 	 
C 	 -124.454 	 67.5219 	 -59.8904 	 
H 	 -124.217 	 67.8034 	 -60.974 	 
H 	 -124.932 	 68.4261 	 -59.4081 	 
C 	 -123.087 	 67.1758 	 -59.1669 	 
H 	 -122.401 	 66.6455 	 -59.8166 	 
H 	 -122.561 	 68.0585 	 -58.824 	 
H 	 -123.278 	 66.5701 	 -58.2839 	 
S 	 -127.51 	 66.9894 	 -54.399 	 
C 	 -129.016 	 67.1831 	 -53.6654 	 
C 	 -129.966 	 66.5157 	 -54.4315 	 
C 	 -129.566 	 66.0276 	 -55.6872 	 
C 	 -128.178 	 66.1578 	 -55.7395 	 
H 	 -130.988 	 66.4887 	 -54.0529 	 
C 	 -130.41 	 65.3002 	 -56.684 	 
H 	 -129.677 	 64.7042 	 -57.2528 	 
H 	 -130.918 	 65.994 	 -57.3279 	 
C 	 -131.438 	 64.2954 	 -56.1086 	 
H 	 -132.155 	 65.0038 	 -55.6619 	 
H 	 -130.99 	 63.6943 	 -55.357 	 
C 	 -132.201 	 63.5267 	 -57.2019 	 
H 	 -132.67 	 64.186 	 -57.9306 	 
H 	 -132.981 	 62.9466 	 -56.6315 	 
H 	 -131.461 	 62.8524 	 -57.5494 	 
H 	 -124.844 	 63.9727 	 -58.541 	 
H 	 -129.299 	 67.6485 	 -52.7407 	 
