34

S 	 -128.258 	 3.5454 	 6.07787 	 
C 	 -126.687 	 3.49016 	 5.45352 	 
C 	 -125.758 	 3.62518 	 6.46272 	 
C 	 -126.364 	 3.87585 	 7.74083 	 
C 	 -127.726 	 3.89642 	 7.7197 	 
H 	 -125.91 	 3.985 	 8.7008 	 
C 	 -124.307 	 3.2828 	 6.1803 	 
H 	 -123.631 	 3.73993 	 6.89315 	 
H 	 -124.034 	 3.63813 	 5.15712 	 
C 	 -124.262 	 1.67118 	 6.03318 	 
H 	 -124.703 	 1.14719 	 6.90863 	 
H 	 -124.831 	 1.27231 	 5.1558 	 
C 	 -122.825 	 1.18279 	 5.83469 	 
H 	 -122.788 	 0.104387 	 5.89933 	 
H 	 -122.57 	 1.52398 	 4.83632 	 
H 	 -122.099 	 1.51973 	 6.60311 	 
S 	 -130.091 	 4.9358 	 8.58232 	 
C 	 -130.88 	 4.42112 	 10.0798 	 
C 	 -130.157 	 3.35182 	 10.5647 	 
C 	 -128.865 	 3.16503 	 9.92258 	 
C 	 -128.738 	 3.89035 	 8.77958 	 
H 	 -130.542 	 2.9756 	 11.4785 	 
C 	 -127.882 	 2.11627 	 10.4413 	 
H 	 -128.288 	 1.74326 	 11.3922 	 
H 	 -126.943 	 2.53761 	 10.6739 	 
C 	 -127.678 	 0.958648 	 9.43563 	 
H 	 -126.909 	 0.293722 	 9.79249 	 
H 	 -127.363 	 1.37203 	 8.44405 	 
C 	 -128.926 	 0.100056 	 9.36018 	 
H 	 -129.018 	 -0.69005 	 10.1584 	 
H 	 -128.974 	 -0.521918 	 8.47711 	 
H 	 -129.801 	 0.809027 	 9.41485 	 
H 	 -126.501 	 3.11952 	 4.45748 	 
H 	 -131.817 	 4.72068 	 10.4935 	 
