34

S 	 -97.4019 	 -24.6537 	 -65.7109 	 
C 	 -97.5464 	 -22.953 	 -65.9071 	 
C 	 -96.7701 	 -22.2731 	 -65.0271 	 
C 	 -96.0193 	 -23.1481 	 -64.1187 	 
C 	 -96.2457 	 -24.4916 	 -64.4192 	 
H 	 -95.4261 	 -22.8508 	 -63.3198 	 
C 	 -96.6326 	 -20.7749 	 -64.8057 	 
H 	 -96.7668 	 -20.333 	 -65.7861 	 
H 	 -95.6767 	 -20.5374 	 -64.3731 	 
C 	 -97.7152 	 -20.2275 	 -63.8003 	 
H 	 -97.8372 	 -19.1488 	 -63.7944 	 
H 	 -98.7321 	 -20.4843 	 -64.1439 	 
C 	 -97.4898 	 -20.7601 	 -62.3832 	 
H 	 -96.4773 	 -20.6955 	 -62.1342 	 
H 	 -98.031 	 -20.2117 	 -61.6585 	 
H 	 -97.9019 	 -21.7522 	 -62.2691 	 
S 	 -95.2389 	 -27.0314 	 -64.489 	 
C 	 -94.7855 	 -27.7202 	 -62.9865 	 
C 	 -94.8828 	 -26.9193 	 -61.9008 	 
C 	 -95.623 	 -25.7681 	 -62.2464 	 
C 	 -95.846 	 -25.6271 	 -63.6111 	 
H 	 -94.523 	 -27.2421 	 -60.9541 	 
C 	 -96.0929 	 -24.7512 	 -61.2649 	 
H 	 -96.9843 	 -24.329 	 -61.6184 	 
H 	 -95.3843 	 -23.9704 	 -61.2406 	 
C 	 -96.4485 	 -25.2034 	 -59.8189 	 
H 	 -95.5137 	 -25.7585 	 -59.4022 	 
H 	 -97.2889 	 -25.8933 	 -59.842 	 
C 	 -96.7316 	 -23.8899 	 -59.0204 	 
H 	 -97.7463 	 -23.5172 	 -59.0817 	 
H 	 -96.1036 	 -23.0492 	 -59.3925 	 
H 	 -96.5538 	 -24.0486 	 -57.9627 	 
H 	 -98.1569 	 -22.4388 	 -66.6709 	 
H 	 -94.1637 	 -28.5796 	 -62.9122 	 
