34

S 	 -47.272 	 17.2304 	 29.5387 	 
C 	 -47.3778 	 16.7107 	 27.8592 	 
C 	 -47.8596 	 17.792 	 27.0419 	 
C 	 -48.1415 	 18.972 	 27.7667 	 
C 	 -47.9047 	 18.8762 	 29.1333 	 
H 	 -48.5379 	 19.8867 	 27.3549 	 
C 	 -48.0678 	 17.7529 	 25.5649 	 
H 	 -47.8804 	 18.7644 	 25.1966 	 
H 	 -49.092 	 17.5706 	 25.3053 	 
C 	 -47.1694 	 16.7798 	 24.813 	 
H 	 -46.0781 	 17.0068 	 25.0629 	 
H 	 -47.1831 	 15.8329 	 25.1954 	 
C 	 -47.4108 	 16.834 	 23.3021 	 
H 	 -46.8776 	 16.1106 	 22.6877 	 
H 	 -48.454 	 16.6834 	 23.1507 	 
H 	 -47.0898 	 17.8335 	 22.9612 	 
S 	 -49.1887 	 19.3905 	 31.5404 	 
C 	 -49.0106 	 21.0252 	 32.1717 	 
C 	 -48.6237 	 21.9459 	 31.2437 	 
C 	 -48.0652 	 21.2925 	 30.0757 	 
C 	 -48.1557 	 19.9061 	 30.1156 	 
H 	 -48.596 	 22.9984 	 31.4061 	 
C 	 -47.2847 	 21.9954 	 28.9537 	 
H 	 -47.2107 	 23.0259 	 29.3024 	 
H 	 -47.8472 	 22.0356 	 28.0937 	 
C 	 -45.988 	 21.3356 	 28.4843 	 
H 	 -45.5151 	 21.9535 	 27.7304 	 
H 	 -46.1611 	 20.4387 	 27.9448 	 
C 	 -45.0226 	 20.874 	 29.6022 	 
H 	 -44.5549 	 21.7199 	 30.0946 	 
H 	 -44.2384 	 20.1578 	 29.3523 	 
H 	 -45.4988 	 20.3422 	 30.3572 	 
H 	 -47.1932 	 15.7944 	 27.411 	 
H 	 -49.4809 	 21.2948 	 33.1423 	 
