34

S 	 -73.984 	 1.50702 	 -60.9018 	 
C 	 -75.0635 	 2.73852 	 -61.5271 	 
C 	 -76.2826 	 2.63018 	 -60.954 	 
C 	 -76.3596 	 1.56193 	 -60.0136 	 
C 	 -75.3382 	 0.665528 	 -60.0116 	 
H 	 -77.2157 	 1.37768 	 -59.4343 	 
C 	 -77.4886 	 3.49517 	 -61.3543 	 
H 	 -78.4539 	 2.99135 	 -61.2137 	 
H 	 -77.4347 	 3.64179 	 -62.4752 	 
C 	 -77.5659 	 4.82084 	 -60.6075 	 
H 	 -77.6932 	 4.54281 	 -59.5674 	 
H 	 -76.5491 	 5.39409 	 -60.6611 	 
C 	 -78.7495 	 5.77855 	 -60.8566 	 
H 	 -79.7201 	 5.43273 	 -60.5435 	 
H 	 -78.515 	 6.63329 	 -60.1987 	 
H 	 -78.8477 	 6.0842 	 -61.9537 	 
S 	 -73.6832 	 -1.49643 	 -59.436 	 
C 	 -74.1181 	 -2.64739 	 -58.2471 	 
C 	 -75.3077 	 -2.26867 	 -57.6696 	 
C 	 -75.9149 	 -1.04723 	 -58.1383 	 
C 	 -75.1404 	 -0.523212 	 -59.1881 	 
H 	 -75.6564 	 -3.01689 	 -57.0063 	 
C 	 -77.2332 	 -0.565567 	 -57.6566 	 
H 	 -77.2035 	 0.507202 	 -57.588 	 
H 	 -77.3823 	 -0.922413 	 -56.6854 	 
C 	 -78.4589 	 -1.02896 	 -58.494 	 
H 	 -78.3696 	 -2.06408 	 -58.686 	 
H 	 -78.5196 	 -0.584538 	 -59.4902 	 
C 	 -79.7371 	 -0.949503 	 -57.6466 	 
H 	 -79.6847 	 0.0333176 	 -57.1418 	 
H 	 -79.8238 	 -1.58514 	 -56.7793 	 
H 	 -80.6049 	 -1.04965 	 -58.2634 	 
H 	 -74.6742 	 3.62474 	 -62.0562 	 
H 	 -73.5455 	 -3.57015 	 -58.1087 	 
