34

S 	 42.1428 	 -19.6259 	 -106.178 	 
C 	 41.3518 	 -19.7469 	 -107.719 	 
C 	 39.962 	 -19.6831 	 -107.542 	 
C 	 39.5625 	 -19.5484 	 -106.189 	 
C 	 40.6787 	 -19.3451 	 -105.34 	 
H 	 38.568 	 -19.569 	 -105.737 	 
C 	 38.8842 	 -19.9411 	 -108.62 	 
H 	 39.3326 	 -19.8423 	 -109.586 	 
H 	 38.1766 	 -19.1041 	 -108.402 	 
C 	 38.1506 	 -21.2672 	 -108.625 	 
H 	 37.8119 	 -21.4053 	 -109.653 	 
H 	 39.0054 	 -21.9424 	 -108.505 	 
C 	 37.0803 	 -21.5384 	 -107.552 	 
H 	 36.1849 	 -20.9586 	 -107.742 	 
H 	 36.8547 	 -22.5975 	 -107.592 	 
H 	 37.5007 	 -21.3478 	 -106.629 	 
S 	 40.3578 	 -17.2902 	 -103.582 	 
C 	 40.4574 	 -17.5462 	 -101.86 	 
C 	 41.0198 	 -18.7678 	 -101.597 	 
C 	 41.0658 	 -19.6338 	 -102.74 	 
C 	 40.6903 	 -19.0053 	 -103.92 	 
H 	 41.2777 	 -18.9515 	 -100.629 	 
C 	 41.5261 	 -21.0778 	 -102.618 	 
H 	 42.6631 	 -21.1247 	 -102.779 	 
H 	 41.0222 	 -21.4931 	 -103.437 	 
C 	 41.2203 	 -21.6943 	 -101.296 	 
H 	 40.1356 	 -21.4835 	 -101.151 	 
H 	 41.7243 	 -21.1327 	 -100.557 	 
C 	 41.3514 	 -23.1711 	 -101.153 	 
H 	 40.7205 	 -23.569 	 -101.966 	 
H 	 40.9913 	 -23.5572 	 -100.148 	 
H 	 42.3433 	 -23.4286 	 -101.488 	 
H 	 41.8605 	 -20.0066 	 -108.637 	 
H 	 40.3793 	 -16.8301 	 -101.034 	 
