34

S 	 -39.824 	 17.8917 	 -100.1 	 
C 	 -38.6905 	 17.665 	 -101.345 	 
C 	 -37.4254 	 17.686 	 -100.847 	 
C 	 -37.3615 	 17.7277 	 -99.4184 	 
C 	 -38.6259 	 17.701 	 -98.7956 	 
H 	 -36.4389 	 17.5047 	 -98.8573 	 
C 	 -36.1635 	 17.6432 	 -101.744 	 
H 	 -35.3241 	 17.7893 	 -101.112 	 
H 	 -36.0609 	 18.5918 	 -102.313 	 
C 	 -36.0287 	 16.4649 	 -102.639 	 
H 	 -36.8667 	 16.4866 	 -103.301 	 
H 	 -35.1388 	 16.5168 	 -103.256 	 
C 	 -35.9052 	 15.1461 	 -101.862 	 
H 	 -35.8448 	 14.248 	 -102.513 	 
H 	 -34.9784 	 15.2625 	 -101.21 	 
H 	 -36.7091 	 15.0835 	 -101.145 	 
S 	 -39.1379 	 19.7074 	 -96.9947 	 
C 	 -39.2757 	 19.236 	 -95.3 	 
C 	 -39.438 	 17.9019 	 -95.1546 	 
C 	 -39.2955 	 17.1384 	 -96.3844 	 
C 	 -38.964 	 18.0043 	 -97.4388 	 
H 	 -39.5247 	 17.3886 	 -94.1432 	 
C 	 -39.4261 	 15.626 	 -96.5373 	 
H 	 -40.1317 	 15.3284 	 -97.268 	 
H 	 -39.9313 	 15.2459 	 -95.6333 	 
C 	 -38.0539 	 14.9395 	 -96.772 	 
H 	 -37.4487 	 15.0503 	 -95.8774 	 
H 	 -37.5301 	 15.2598 	 -97.7075 	 
C 	 -38.2354 	 13.4059 	 -96.8501 	 
H 	 -39.0477 	 13.1069 	 -97.5521 	 
H 	 -38.4752 	 12.9383 	 -95.8783 	 
H 	 -37.3709 	 12.9699 	 -97.1715 	 
H 	 -38.8213 	 17.7884 	 -102.362 	 
H 	 -39.0915 	 19.8757 	 -94.4371 	 
