34

S 	 -29.8163 	 12.0084 	 2.15922 	 
C 	 -31.2833 	 12.571 	 1.34542 	 
C 	 -32.2934 	 12.7625 	 2.29249 	 
C 	 -31.8152 	 12.426 	 3.61125 	 
C 	 -30.5248 	 12.0073 	 3.78354 	 
H 	 -32.327 	 12.4808 	 4.47785 	 
C 	 -33.7478 	 13.2215 	 1.99031 	 
H 	 -33.9333 	 13.2278 	 0.882461 	 
H 	 -33.7111 	 14.2663 	 2.2825 	 
C 	 -34.9038 	 12.4624 	 2.73116 	 
H 	 -34.8022 	 12.4785 	 3.80316 	 
H 	 -35.8117 	 13.0174 	 2.55844 	 
C 	 -34.9304 	 10.9552 	 2.40118 	 
H 	 -34.0645 	 10.5105 	 2.86635 	 
H 	 -35.8783 	 10.5435 	 2.70716 	 
H 	 -34.8872 	 10.8051 	 1.32834 	 
S 	 -27.9737 	 11.4413 	 4.81588 	 
C 	 -27.8619 	 10.8121 	 6.43065 	 
C 	 -28.8863 	 11.4002 	 7.17128 	 
C 	 -30.0244 	 11.7466 	 6.36537 	 
C 	 -29.7513 	 11.7086 	 4.99541 	 
H 	 -28.8093 	 11.5371 	 8.28383 	 
C 	 -31.3152 	 12.351 	 6.97818 	 
H 	 -31.6452 	 13.328 	 6.48162 	 
H 	 -30.9917 	 12.7168 	 7.98033 	 
C 	 -32.4903 	 11.3575 	 7.00484 	 
H 	 -32.3512 	 10.4682 	 7.62952 	 
H 	 -32.5135 	 10.8859 	 5.97155 	 
C 	 -33.8959 	 11.9539 	 7.38806 	 
H 	 -34.084 	 12.9105 	 6.83943 	 
H 	 -34.041 	 12.1185 	 8.48269 	 
H 	 -34.6888 	 11.2537 	 7.3681 	 
H 	 -31.3768 	 12.9311 	 0.342919 	 
H 	 -26.9435 	 10.5127 	 6.94581 	 
