34

S 	 -118.902 	 26.1818 	 -15.2223 	 
C 	 -118.54 	 26.8829 	 -16.7452 	 
C 	 -118.217 	 28.2211 	 -16.6784 	 
C 	 -118.151 	 28.7182 	 -15.3319 	 
C 	 -118.687 	 27.7497 	 -14.517 	 
H 	 -117.829 	 29.7357 	 -15.056 	 
C 	 -117.596 	 28.9901 	 -17.7855 	 
H 	 -117.32 	 28.3474 	 -18.6099 	 
H 	 -116.659 	 29.2703 	 -17.3529 	 
C 	 -118.33 	 30.2296 	 -18.3277 	 
H 	 -119.261 	 30.011 	 -18.8224 	 
H 	 -118.644 	 30.6668 	 -17.3536 	 
C 	 -117.598 	 31.2676 	 -19.1483 	 
H 	 -116.623 	 31.6127 	 -18.8235 	 
H 	 -117.434 	 30.9102 	 -20.1852 	 
H 	 -118.257 	 32.225 	 -19.1281 	 
S 	 -117.752 	 27.3416 	 -11.9528 	 
C 	 -118.766 	 27.773 	 -10.6156 	 
C 	 -119.934 	 28.369 	 -11.0659 	 
C 	 -120.054 	 28.5013 	 -12.5072 	 
C 	 -118.974 	 27.8438 	 -13.1003 	 
H 	 -120.736 	 28.6705 	 -10.4372 	 
C 	 -121.11 	 29.3254 	 -13.1896 	 
H 	 -120.585 	 29.8088 	 -13.9261 	 
H 	 -121.462 	 30.1693 	 -12.5492 	 
C 	 -122.27 	 28.5106 	 -13.7572 	 
H 	 -121.975 	 27.7637 	 -14.4431 	 
H 	 -122.827 	 29.2067 	 -14.3519 	 
C 	 -123.199 	 27.8281 	 -12.7698 	 
H 	 -123.958 	 27.1545 	 -13.1917 	 
H 	 -123.622 	 28.6315 	 -12.2062 	 
H 	 -122.694 	 27.1017 	 -12.0914 	 
H 	 -118.49 	 26.3113 	 -17.6799 	 
H 	 -118.737 	 27.431 	 -9.57098 	 
