34

S 	 -116.757 	 49.3719 	 -120.748 	 
C 	 -115.716 	 48.0128 	 -120.953 	 
C 	 -114.891 	 47.8689 	 -119.873 	 
C 	 -114.778 	 49.036 	 -119.082 	 
C 	 -115.743 	 49.928 	 -119.429 	 
H 	 -114.154 	 49.224 	 -118.223 	 
C 	 -114.051 	 46.6602 	 -119.512 	 
H 	 -114.104 	 45.9781 	 -120.364 	 
H 	 -114.586 	 46.3223 	 -118.624 	 
C 	 -112.585 	 46.7981 	 -118.995 	 
H 	 -112.602 	 46.7124 	 -117.914 	 
H 	 -111.907 	 46.0086 	 -119.36 	 
C 	 -111.789 	 47.9265 	 -119.736 	 
H 	 -112.206 	 48.9311 	 -119.605 	 
H 	 -110.74 	 47.8403 	 -119.581 	 
H 	 -112.07 	 47.7844 	 -120.829 	 
S 	 -115.647 	 52.5258 	 -120.106 	 
C 	 -115.816 	 53.769 	 -118.96 	 
C 	 -115.885 	 53.2244 	 -117.676 	 
C 	 -115.793 	 51.7858 	 -117.695 	 
C 	 -115.95 	 51.2781 	 -118.973 	 
H 	 -116.05 	 53.8527 	 -116.805 	 
C 	 -115.674 	 50.9247 	 -116.49 	 
H 	 -115.474 	 51.5984 	 -115.686 	 
H 	 -114.849 	 50.2188 	 -116.513 	 
C 	 -116.873 	 50.1468 	 -116.013 	 
H 	 -116.774 	 49.7395 	 -115.012 	 
H 	 -117.031 	 49.4439 	 -116.818 	 
C 	 -118.062 	 51.1486 	 -115.942 	 
H 	 -117.737 	 52.1628 	 -115.85 	 
H 	 -118.794 	 50.8143 	 -115.136 	 
H 	 -118.712 	 51.0926 	 -116.819 	 
H 	 -115.854 	 47.2949 	 -121.699 	 
H 	 -115.673 	 54.8033 	 -119.16 	 
