34

S 	 -48.7912 	 -48.9352 	 -79.6274 	 
C 	 -47.9407 	 -49.5795 	 -80.9774 	 
C 	 -48.783 	 -50.3814 	 -81.7726 	 
C 	 -50.0475 	 -50.5957 	 -81.1614 	 
C 	 -50.2975 	 -49.7926 	 -79.9936 	 
H 	 -50.8652 	 -51.2586 	 -81.4818 	 
C 	 -48.351 	 -51.0709 	 -83.0695 	 
H 	 -47.7216 	 -50.4725 	 -83.6748 	 
H 	 -49.2827 	 -51.3741 	 -83.5352 	 
C 	 -47.5262 	 -52.3614 	 -82.8924 	 
H 	 -47.2852 	 -52.5991 	 -83.8911 	 
H 	 -46.6496 	 -52.0702 	 -82.3161 	 
C 	 -48.2609 	 -53.4826 	 -82.1414 	 
H 	 -47.5907 	 -54.3055 	 -82.1692 	 
H 	 -48.2894 	 -53.2979 	 -81.067 	 
H 	 -49.1648 	 -53.7267 	 -82.5943 	 
S 	 -51.0965 	 -50.7161 	 -77.5627 	 
C 	 -52.7338 	 -50.5725 	 -77.1168 	 
C 	 -53.5629 	 -50.2473 	 -78.1536 	 
C 	 -52.7541 	 -49.8691 	 -79.3241 	 
C 	 -51.3889 	 -49.9775 	 -79.0541 	 
H 	 -54.6153 	 -50.346 	 -78.1189 	 
C 	 -53.4133 	 -49.5068 	 -80.6873 	 
H 	 -52.6689 	 -48.9432 	 -81.2416 	 
H 	 -54.2405 	 -48.8459 	 -80.4865 	 
C 	 -53.8191 	 -50.6808 	 -81.5559 	 
H 	 -54.4279 	 -51.3475 	 -81.0186 	 
H 	 -52.959 	 -51.3527 	 -81.8155 	 
C 	 -54.5944 	 -50.286 	 -82.8352 	 
H 	 -53.9289 	 -49.7432 	 -83.427 	 
H 	 -55.4421 	 -49.5981 	 -82.6695 	 
H 	 -54.9909 	 -51.115 	 -83.344 	 
H 	 -46.9727 	 -49.2576 	 -81.3841 	 
H 	 -53.0709 	 -50.8735 	 -76.1141 	 
