34

S 	 -60.7752 	 18.1085 	 20.7358 	 
C 	 -61.0494 	 17.5702 	 22.4371 	 
C 	 -59.8355 	 17.4646 	 23.0942 	 
C 	 -58.7425 	 17.8746 	 22.3034 	 
C 	 -58.9971 	 18.2939 	 20.9929 	 
H 	 -57.7882 	 18.1097 	 22.7541 	 
C 	 -59.7635 	 17.1392 	 24.5727 	 
H 	 -59.0628 	 16.2647 	 24.5444 	 
H 	 -60.7306 	 16.8865 	 24.9738 	 
C 	 -59.2714 	 18.2424 	 25.499 	 
H 	 -58.3012 	 18.5471 	 25.1673 	 
H 	 -59.8887 	 19.1706 	 25.311 	 
C 	 -59.1154 	 17.8595 	 26.9976 	 
H 	 -58.3475 	 17.0471 	 27.0897 	 
H 	 -58.7807 	 18.7685 	 27.6435 	 
H 	 -59.9996 	 17.4183 	 27.4848 	 
S 	 -58.3054 	 20.7876 	 20.133 	 
C 	 -57.0084 	 20.9552 	 18.989 	 
C 	 -56.2986 	 19.805 	 18.8909 	 
C 	 -56.9761 	 18.7183 	 19.4986 	 
C 	 -58.1519 	 19.1036 	 20.1558 	 
H 	 -55.3554 	 19.7495 	 18.4306 	 
C 	 -56.4621 	 17.3366 	 19.3065 	 
H 	 -56.0008 	 17.2646 	 18.3479 	 
H 	 -57.3066 	 16.6353 	 19.0948 	 
C 	 -55.3959 	 16.7323 	 20.2963 	 
H 	 -55.9909 	 16.7648 	 21.2894 	 
H 	 -54.5755 	 17.3764 	 20.3723 	 
C 	 -54.9672 	 15.329 	 19.9758 	 
H 	 -55.758 	 14.5389 	 19.9262 	 
H 	 -54.3521 	 15.1852 	 20.8367 	 
H 	 -54.3896 	 15.3833 	 19.0578 	 
H 	 -62.002 	 17.3471 	 22.8936 	 
H 	 -56.6584 	 21.9518 	 18.7096 	 
