34

S 	 -112.417 	 60.6229 	 -67.344 	 
C 	 -112.825 	 59.4795 	 -66.0333 	 
C 	 -113.531 	 60.0651 	 -64.9811 	 
C 	 -113.596 	 61.4484 	 -65.1703 	 
C 	 -113.088 	 61.9132 	 -66.3619 	 
H 	 -114.126 	 62.1372 	 -64.5958 	 
C 	 -114.129 	 59.2976 	 -63.833 	 
H 	 -114.25 	 60.0086 	 -63.034 	 
H 	 -113.383 	 58.6274 	 -63.4024 	 
C 	 -115.542 	 58.6577 	 -64.1263 	 
H 	 -116.228 	 59.3924 	 -64.512 	 
H 	 -115.382 	 57.9669 	 -64.9548 	 
C 	 -116.195 	 58.0264 	 -62.8479 	 
H 	 -116.895 	 57.3777 	 -63.2583 	 
H 	 -115.447 	 57.4542 	 -62.2905 	 
H 	 -116.584 	 58.7515 	 -62.1363 	 
S 	 -111.483 	 63.9399 	 -67.0261 	 
C 	 -112.121 	 65.5435 	 -67.3211 	 
C 	 -113.491 	 65.5317 	 -67.2923 	 
C 	 -114.001 	 64.1956 	 -67.0542 	 
C 	 -113.01 	 63.2704 	 -66.8019 	 
H 	 -114.011 	 66.4182 	 -67.5088 	 
C 	 -115.464 	 63.8688 	 -66.9985 	 
H 	 -115.792 	 64.2477 	 -66.0432 	 
H 	 -115.618 	 62.7648 	 -67.0089 	 
C 	 -116.304 	 64.397 	 -68.2141 	 
H 	 -116.015 	 65.4048 	 -68.3752 	 
H 	 -117.379 	 64.2279 	 -67.9715 	 
C 	 -116.017 	 63.5383 	 -69.4861 	 
H 	 -116.35 	 62.5281 	 -69.3195 	 
H 	 -114.915 	 63.5946 	 -69.6972 	 
H 	 -116.587 	 63.8708 	 -70.4025 	 
H 	 -112.785 	 58.4128 	 -66.0755 	 
H 	 -111.554 	 66.4533 	 -67.6055 	 
