34

S 	 -50.3668 	 15.287 	 23.0231 	 
C 	 -51.9569 	 14.5563 	 23.5356 	 
C 	 -52.903 	 15.0213 	 22.6488 	 
C 	 -52.477 	 16.0241 	 21.7485 	 
C 	 -51.1584 	 16.357 	 21.8755 	 
H 	 -53.1403 	 16.4552 	 21.0133 	 
C 	 -54.381 	 14.5152 	 22.7793 	 
H 	 -54.5656 	 14.1896 	 23.8062 	 
H 	 -54.3857 	 13.5631 	 22.2562 	 
C 	 -55.5537 	 15.416 	 22.2662 	 
H 	 -55.6185 	 16.299 	 22.8704 	 
H 	 -55.4686 	 15.6725 	 21.1977 	 
C 	 -56.8128 	 14.5519 	 22.6008 	 
H 	 -57.1118 	 14.4945 	 23.6552 	 
H 	 -57.6846 	 14.9689 	 22.1051 	 
H 	 -56.7909 	 13.5476 	 22.1283 	 
S 	 -49.3471 	 16.5384 	 19.8903 	 
C 	 -48.9105 	 18.0575 	 19.1638 	 
C 	 -49.594 	 19.0881 	 19.7449 	 
C 	 -50.375 	 18.6667 	 20.8854 	 
C 	 -50.3639 	 17.2849 	 21.0662 	 
H 	 -49.3531 	 20.0545 	 19.4444 	 
C 	 -51.2338 	 19.6957 	 21.6959 	 
H 	 -52.0644 	 19.1303 	 22.0456 	 
H 	 -51.7264 	 20.4495 	 21.0723 	 
C 	 -50.3884 	 20.3574 	 22.7781 	 
H 	 -49.8781 	 19.4774 	 23.2822 	 
H 	 -51.0987 	 20.7987 	 23.4614 	 
C 	 -49.308 	 21.3625 	 22.2686 	 
H 	 -48.4662 	 20.9687 	 21.6902 	 
H 	 -48.8318 	 21.6789 	 23.1882 	 
H 	 -49.7282 	 22.2512 	 21.7686 	 
H 	 -52.113 	 13.8989 	 24.4033 	 
H 	 -48.3537 	 18.1746 	 18.266 	 
