34

S 	 -141.295 	 28.7594 	 -11.4717 	 
C 	 -140.101 	 29.9088 	 -11.3599 	 
C 	 -140.325 	 30.9643 	 -12.2024 	 
C 	 -141.561 	 30.9442 	 -12.9444 	 
C 	 -142.149 	 29.7232 	 -12.7045 	 
H 	 -141.938 	 31.6372 	 -13.7842 	 
C 	 -139.241 	 31.9856 	 -12.3922 	 
H 	 -138.563 	 31.9386 	 -11.5528 	 
H 	 -139.696 	 32.9768 	 -12.4512 	 
C 	 -138.476 	 31.7417 	 -13.7075 	 
H 	 -137.983 	 30.8107 	 -13.5357 	 
H 	 -139.173 	 31.6305 	 -14.6012 	 
C 	 -137.49 	 32.9233 	 -13.8741 	 
H 	 -136.638 	 32.904 	 -13.1888 	 
H 	 -137.077 	 32.8217 	 -14.8748 	 
H 	 -137.882 	 33.9063 	 -13.7161 	 
S 	 -144.786 	 29.762 	 -12.1593 	 
C 	 -145.923 	 28.7623 	 -13.0691 	 
C 	 -145.292 	 28.0569 	 -14.0298 	 
C 	 -143.951 	 28.4521 	 -14.1758 	 
C 	 -143.503 	 29.2799 	 -13.1535 	 
H 	 -145.918 	 27.371 	 -14.6309 	 
C 	 -143.03 	 27.7535 	 -15.1554 	 
H 	 -142.135 	 28.3609 	 -15.2987 	 
H 	 -143.476 	 27.8128 	 -16.1324 	 
C 	 -142.8 	 26.2632 	 -15.0234 	 
H 	 -143.658 	 25.7261 	 -15.465 	 
H 	 -142.713 	 25.8866 	 -13.9689 	 
C 	 -141.474 	 25.9314 	 -15.7045 	 
H 	 -141.411 	 26.1758 	 -16.7501 	 
H 	 -141.262 	 24.9043 	 -15.5928 	 
H 	 -140.712 	 26.4289 	 -15.1445 	 
H 	 -139.135 	 29.7121 	 -10.9577 	 
H 	 -146.954 	 28.737 	 -12.8384 	 
