34

S 	 -143.836 	 3.74495 	 15.0362 	 
C 	 -144.23 	 2.98528 	 13.4748 	 
C 	 -144.76 	 3.95156 	 12.5957 	 
C 	 -145.128 	 5.18002 	 13.2304 	 
C 	 -144.81 	 5.16906 	 14.5281 	 
H 	 -145.576 	 6.0142 	 12.8084 	 
C 	 -144.881 	 3.77201 	 11.0652 	 
H 	 -143.944 	 3.43189 	 10.7212 	 
H 	 -144.998 	 4.71376 	 10.5941 	 
C 	 -146.119 	 3.03039 	 10.5716 	 
H 	 -146.461 	 2.3865 	 11.3942 	 
H 	 -146.983 	 3.63409 	 10.3158 	 
C 	 -145.782 	 2.13484 	 9.33422 	 
H 	 -146.617 	 1.72999 	 8.76026 	 
H 	 -145.144 	 2.6557 	 8.63385 	 
H 	 -145.087 	 1.25748 	 9.55983 	 
S 	 -143.713 	 6.61987 	 16.6003 	 
C 	 -144.659 	 7.84516 	 17.4229 	 
C 	 -145.917 	 7.89738 	 16.8112 	 
C 	 -146.15 	 7.06132 	 15.692 	 
C 	 -145.046 	 6.27585 	 15.4924 	 
H 	 -146.605 	 8.69256 	 17.1863 	 
C 	 -147.453 	 6.90982 	 14.9397 	 
H 	 -147.332 	 7.09843 	 13.8503 	 
H 	 -148.121 	 7.66749 	 15.2907 	 
C 	 -148.22 	 5.56921 	 14.9988 	 
H 	 -148.564 	 5.36498 	 15.9726 	 
H 	 -147.669 	 4.70617 	 14.7655 	 
C 	 -149.47 	 5.44468 	 14.1149 	 
H 	 -149.359 	 5.74082 	 13.1041 	 
H 	 -150.164 	 6.07098 	 14.6333 	 
H 	 -149.841 	 4.38564 	 14.106 	 
H 	 -144.019 	 1.99774 	 13.153 	 
H 	 -144.382 	 8.45248 	 18.2167 	 
