34

S 	 -121.593 	 48.8478 	 -37.0638 	 
C 	 -122.657 	 47.6092 	 -37.487 	 
C 	 -123.53 	 47.2905 	 -36.4555 	 
C 	 -123.183 	 48.027 	 -35.3079 	 
C 	 -122.201 	 48.9776 	 -35.4255 	 
H 	 -123.631 	 47.8507 	 -34.3811 	 
C 	 -124.701 	 46.2433 	 -36.4433 	 
H 	 -124.546 	 45.4046 	 -37.0642 	 
H 	 -125.572 	 46.8126 	 -36.7694 	 
C 	 -125.079 	 45.5982 	 -35.0701 	 
H 	 -125.407 	 46.4554 	 -34.5806 	 
H 	 -125.927 	 44.9213 	 -35.2295 	 
C 	 -123.924 	 44.9379 	 -34.3386 	 
H 	 -124.341 	 44.5617 	 -33.3994 	 
H 	 -123.447 	 44.0527 	 -34.8805 	 
H 	 -123.279 	 45.7629 	 -34.1056 	 
S 	 -121.84 	 51.5984 	 -34.6286 	 
C 	 -121.247 	 52.0078 	 -33.0258 	 
C 	 -120.855 	 50.833 	 -32.35 	 
C 	 -121.307 	 49.6695 	 -33.031 	 
C 	 -121.653 	 49.9227 	 -34.4008 	 
H 	 -120.496 	 50.7796 	 -31.3688 	 
C 	 -121.22 	 48.239 	 -32.4643 	 
H 	 -120.264 	 47.794 	 -32.6496 	 
H 	 -121.709 	 47.4899 	 -33.0935 	 
C 	 -121.601 	 48.1876 	 -30.9579 	 
H 	 -120.937 	 48.9274 	 -30.4971 	 
H 	 -121.424 	 47.2272 	 -30.4799 	 
C 	 -123.04 	 48.6565 	 -30.6453 	 
H 	 -123.118 	 48.7557 	 -29.5377 	 
H 	 -123.819 	 47.9975 	 -31.0274 	 
H 	 -123.129 	 49.6997 	 -30.9951 	 
H 	 -122.63 	 47.1846 	 -38.4403 	 
H 	 -121.077 	 52.9594 	 -32.6197 	 
