34

S 	 -102.854 	 13.5194 	 -123.549 	 
C 	 -104.426 	 13.4471 	 -124.345 	 
C 	 -105.193 	 12.3403 	 -123.953 	 
C 	 -104.583 	 11.6765 	 -122.869 	 
C 	 -103.364 	 12.1803 	 -122.55 	 
H 	 -105.032 	 10.8015 	 -122.336 	 
C 	 -106.654 	 12.0435 	 -124.353 	 
H 	 -106.774 	 10.9757 	 -124.609 	 
H 	 -106.775 	 12.6744 	 -125.268 	 
C 	 -107.788 	 12.5107 	 -123.373 	 
H 	 -107.802 	 13.589 	 -123.444 	 
H 	 -108.747 	 12.1535 	 -123.671 	 
C 	 -107.605 	 12.1173 	 -121.941 	 
H 	 -107.491 	 11.0101 	 -121.834 	 
H 	 -106.795 	 12.7363 	 -121.642 	 
H 	 -108.446 	 12.286 	 -121.354 	 
S 	 -100.873 	 11.1688 	 -121.948 	 
C 	 -100.531 	 10.8331 	 -120.294 	 
C 	 -101.638 	 10.9323 	 -119.483 	 
C 	 -102.754 	 11.5356 	 -120.131 	 
C 	 -102.51 	 11.6921 	 -121.465 	 
H 	 -101.514 	 10.8247 	 -118.402 	 
C 	 -103.996 	 11.7463 	 -119.386 	 
H 	 -104.089 	 10.8807 	 -118.653 	 
H 	 -104.722 	 11.5574 	 -120.162 	 
C 	 -104.095 	 13.1773 	 -118.708 	 
H 	 -103.789 	 13.0183 	 -117.663 	 
H 	 -105.081 	 13.5123 	 -118.571 	 
C 	 -103.295 	 14.412 	 -119.351 	 
H 	 -103.411 	 15.3213 	 -118.892 	 
H 	 -103.496 	 14.5234 	 -120.39 	 
H 	 -102.222 	 14.1901 	 -119.167 	 
H 	 -104.781 	 14.2371 	 -124.989 	 
H 	 -99.4854 	 10.666 	 -119.997 	 
