34

S 	 -73.3404 	 9.0161 	 -111.458 	 
C 	 -74.7703 	 8.67773 	 -110.512 	 
C 	 -74.5162 	 8.1613 	 -109.293 	 
C 	 -73.1058 	 8.07945 	 -109.042 	 
C 	 -72.344 	 8.42497 	 -110.14 	 
H 	 -72.5369 	 7.76674 	 -108.172 	 
C 	 -75.5304 	 7.73273 	 -108.206 	 
H 	 -75.2516 	 6.74344 	 -107.896 	 
H 	 -76.4585 	 7.59122 	 -108.763 	 
C 	 -75.7637 	 8.66187 	 -106.97 	 
H 	 -76.6313 	 8.27659 	 -106.301 	 
H 	 -74.9062 	 8.71807 	 -106.314 	 
C 	 -76.1575 	 10.1178 	 -107.355 	 
H 	 -77.1636 	 10.2506 	 -107.903 	 
H 	 -76.4377 	 10.7484 	 -106.485 	 
H 	 -75.3007 	 10.554 	 -107.885 	 
S 	 -69.8778 	 7.21766 	 -110.734 	 
C 	 -68.463 	 8.04315 	 -110.226 	 
C 	 -68.7047 	 9.34853 	 -109.939 	 
C 	 -70.0787 	 9.6789 	 -110.031 	 
C 	 -70.8886 	 8.56997 	 -110.24 	 
H 	 -67.8757 	 10.0077 	 -109.753 	 
C 	 -70.6133 	 11.0531 	 -109.758 	 
H 	 -70.3065 	 11.3391 	 -108.716 	 
H 	 -71.7109 	 10.963 	 -109.65 	 
C 	 -70.3635 	 12.0647 	 -110.883 	 
H 	 -70.9185 	 12.9792 	 -110.752 	 
H 	 -70.7133 	 11.6372 	 -111.862 	 
C 	 -68.8118 	 12.4745 	 -110.953 	 
H 	 -68.3648 	 12.6548 	 -109.917 	 
H 	 -68.5833 	 13.3163 	 -111.599 	 
H 	 -68.2579 	 11.6544 	 -111.434 	 
H 	 -75.7525 	 9.02811 	 -110.676 	 
H 	 -67.4558 	 7.73013 	 -110.452 	 
