34

S 	 -36.3518 	 -48.2469 	 -78.9657 	 
C 	 -35.1988 	 -48.2442 	 -80.2918 	 
C 	 -33.9234 	 -48.4129 	 -79.7643 	 
C 	 -33.872 	 -48.0598 	 -78.3977 	 
C 	 -35.0927 	 -47.9964 	 -77.7845 	 
H 	 -32.9666 	 -47.9441 	 -77.8006 	 
C 	 -32.6157 	 -48.5461 	 -80.5455 	 
H 	 -31.815 	 -48.6856 	 -79.8295 	 
H 	 -32.3267 	 -47.5692 	 -80.9822 	 
C 	 -32.6609 	 -49.6853 	 -81.6551 	 
H 	 -32.8108 	 -50.6006 	 -81.0678 	 
H 	 -33.5183 	 -49.6049 	 -82.2677 	 
C 	 -31.377 	 -49.6511 	 -82.4664 	 
H 	 -30.5075 	 -50.2133 	 -82.168 	 
H 	 -31.6451 	 -50.212 	 -83.3984 	 
H 	 -31.1006 	 -48.5989 	 -82.7586 	 
S 	 -36.1821 	 -49.002 	 -75.5024 	 
C 	 -36.1413 	 -48.1007 	 -73.9747 	 
C 	 -35.602 	 -46.8559 	 -74.2004 	 
C 	 -35.0116 	 -46.6794 	 -75.5148 	 
C 	 -35.2392 	 -47.7564 	 -76.3509 	 
H 	 -35.6659 	 -46.1334 	 -73.3651 	 
C 	 -34.2531 	 -45.4532 	 -76.0435 	 
H 	 -34.1075 	 -45.5592 	 -77.1019 	 
H 	 -33.2648 	 -45.4485 	 -75.631 	 
C 	 -34.7456 	 -44.0054 	 -75.6429 	 
H 	 -34.8532 	 -43.943 	 -74.5374 	 
H 	 -35.7631 	 -43.865 	 -75.9881 	 
C 	 -33.8688 	 -42.87 	 -76.2494 	 
H 	 -32.8284 	 -42.8686 	 -75.9153 	 
H 	 -34.2976 	 -41.9211 	 -75.9263 	 
H 	 -33.7322 	 -42.9618 	 -77.3472 	 
H 	 -35.5123 	 -48.1457 	 -81.3161 	 
H 	 -36.4637 	 -48.4251 	 -72.9445 	 
