34

S 	 -138.45 	 5.44961 	 -1.36574 	 
C 	 -138.538 	 5.50798 	 0.416424 	 
C 	 -138.079 	 6.71823 	 0.952593 	 
C 	 -137.66 	 7.61963 	 -0.0587573 	 
C 	 -137.849 	 7.16479 	 -1.38275 	 
H 	 -137.181 	 8.59752 	 -0.024624 	 
C 	 -137.975 	 7.02992 	 2.44334 	 
H 	 -136.919 	 7.10881 	 2.75578 	 
H 	 -138.296 	 6.1168 	 2.96782 	 
C 	 -138.78 	 8.22129 	 2.92403 	 
H 	 -138.342 	 8.26647 	 3.94678 	 
H 	 -138.587 	 9.16161 	 2.34917 	 
C 	 -140.302 	 8.03085 	 3.06687 	 
H 	 -140.454 	 7.00672 	 3.37408 	 
H 	 -140.736 	 8.69571 	 3.81567 	 
H 	 -140.852 	 8.18124 	 2.08321 	 
S 	 -136.086 	 7.21963 	 -3.51122 	 
C 	 -136.148 	 8.54665 	 -4.65379 	 
C 	 -137.112 	 9.43239 	 -4.27928 	 
C 	 -137.707 	 9.21951 	 -2.99549 	 
C 	 -137.319 	 8.00996 	 -2.51716 	 
H 	 -137.283 	 10.2336 	 -4.975 	 
C 	 -138.864 	 9.98491 	 -2.50645 	 
H 	 -138.431 	 10.9672 	 -2.0877 	 
H 	 -139.293 	 9.55061 	 -1.52152 	 
C 	 -139.917 	 10.3049 	 -3.55658 	 
H 	 -140.009 	 9.38296 	 -4.13886 	 
H 	 -139.575 	 11.1174 	 -4.2182 	 
C 	 -141.318 	 10.618 	 -2.94482 	 
H 	 -141.543 	 9.83308 	 -2.18459 	 
H 	 -142.167 	 10.5941 	 -3.71297 	 
H 	 -141.433 	 11.588 	 -2.41898 	 
H 	 -138.838 	 4.61518 	 0.918303 	 
H 	 -135.661 	 8.68655 	 -5.57913 	 
