34

S 	 -115.986 	 34.7157 	 -14.8467 	 
C 	 -114.975 	 33.5175 	 -14.0892 	 
C 	 -115.742 	 32.4803 	 -13.645 	 
C 	 -117.125 	 32.7879 	 -13.6708 	 
C 	 -117.425 	 33.943 	 -14.3186 	 
H 	 -117.96 	 32.1978 	 -13.3117 	 
C 	 -115.246 	 31.1322 	 -13.1533 	 
H 	 -115.173 	 31.2871 	 -12.0969 	 
H 	 -114.213 	 30.9827 	 -13.6247 	 
C 	 -116.197 	 29.963 	 -13.4236 	 
H 	 -117.035 	 30.1685 	 -12.7516 	 
H 	 -116.484 	 29.855 	 -14.4892 	 
C 	 -115.64 	 28.5446 	 -13.0219 	 
H 	 -115.687 	 28.338 	 -11.9662 	 
H 	 -116.171 	 27.6547 	 -13.441 	 
H 	 -114.624 	 28.4728 	 -13.3756 	 
S 	 -119.01 	 36.1828 	 -13.9562 	 
C 	 -120.697 	 36.1452 	 -14.2904 	 
C 	 -121.088 	 34.879 	 -14.6876 	 
C 	 -119.97 	 33.9776 	 -14.8459 	 
C 	 -118.73 	 34.5398 	 -14.4539 	 
H 	 -122.063 	 34.6012 	 -14.9135 	 
C 	 -120.118 	 32.6645 	 -15.524 	 
H 	 -121.12 	 32.2793 	 -15.3776 	 
H 	 -119.63 	 32.0207 	 -14.873 	 
C 	 -119.496 	 32.5942 	 -16.9123 	 
H 	 -118.464 	 33.0198 	 -16.9366 	 
H 	 -120.093 	 33.2787 	 -17.5523 	 
C 	 -119.249 	 31.1494 	 -17.4512 	 
H 	 -120.235 	 30.6893 	 -17.6622 	 
H 	 -118.888 	 30.6382 	 -16.559 	 
H 	 -118.506 	 31.0237 	 -18.2057 	 
H 	 -113.925 	 33.4592 	 -14.0884 	 
H 	 -121.383 	 37.0425 	 -14.1111 	 
