34

S 	 -56.392 	 13.2378 	 -98.5807 	 
C 	 -55.4021 	 14.2508 	 -99.656 	 
C 	 -55.5371 	 15.5584 	 -99.1571 	 
C 	 -56.569 	 15.6995 	 -98.1548 	 
C 	 -57.2006 	 14.5518 	 -97.8396 	 
H 	 -56.9549 	 16.6283 	 -97.7064 	 
C 	 -54.6211 	 16.7669 	 -99.5631 	 
H 	 -53.9703 	 17.0323 	 -98.7202 	 
H 	 -55.3749 	 17.5766 	 -99.7172 	 
C 	 -53.6563 	 16.5179 	 -100.786 	 
H 	 -53.1692 	 15.5518 	 -100.676 	 
H 	 -54.2082 	 16.398 	 -101.728 	 
C 	 -52.5911 	 17.5926 	 -101.032 	 
H 	 -51.7594 	 17.0355 	 -101.583 	 
H 	 -52.8787 	 18.5488 	 -101.62 	 
H 	 -52.2487 	 17.8676 	 -100.064 	 
S 	 -59.6013 	 13.1564 	 -97.4923 	 
C 	 -60.6069 	 13.3533 	 -96.0871 	 
C 	 -60.0501 	 14.3316 	 -95.2962 	 
C 	 -58.8047 	 14.8649 	 -95.7763 	 
C 	 -58.43 	 14.3592 	 -97.0257 	 
H 	 -60.4688 	 14.5896 	 -94.3389 	 
C 	 -57.9862 	 15.8235 	 -94.8905 	 
H 	 -56.9069 	 15.7196 	 -95.0044 	 
H 	 -58.2154 	 15.5929 	 -93.8325 	 
C 	 -58.2742 	 17.2701 	 -95.2347 	 
H 	 -58.1959 	 17.4686 	 -96.3051 	 
H 	 -57.58 	 17.902 	 -94.6539 	 
C 	 -59.6665 	 17.7204 	 -94.8843 	 
H 	 -59.9007 	 17.5478 	 -93.8371 	 
H 	 -60.4559 	 17.3043 	 -95.4482 	 
H 	 -59.6632 	 18.8825 	 -94.9905 	 
H 	 -54.7685 	 13.8838 	 -100.396 	 
H 	 -61.4907 	 12.9249 	 -95.6978 	 
