34

S 	 -108.694 	 15.9592 	 -10.5442 	 
C 	 -108.36 	 15.8345 	 -8.86264 	 
C 	 -109.134 	 14.8309 	 -8.28629 	 
C 	 -109.905 	 14.0791 	 -9.23498 	 
C 	 -109.89 	 14.5837 	 -10.4976 	 
H 	 -110.514 	 13.1803 	 -9.02024 	 
C 	 -109.074 	 14.5682 	 -6.80275 	 
H 	 -110.11 	 14.4637 	 -6.34382 	 
H 	 -108.759 	 15.4823 	 -6.45186 	 
C 	 -108.179 	 13.4111 	 -6.38737 	 
H 	 -107.183 	 13.6695 	 -6.66207 	 
H 	 -108.184 	 13.4567 	 -5.25252 	 
C 	 -108.576 	 12.0318 	 -6.92329 	 
H 	 -108.231 	 11.7543 	 -7.88247 	 
H 	 -108.159 	 11.3351 	 -6.33316 	 
H 	 -109.679 	 11.8284 	 -6.92119 	 
S 	 -109.289 	 13.4401 	 -12.9207 	 
C 	 -110.415 	 12.4985 	 -13.7724 	 
C 	 -111.67 	 12.6814 	 -13.2713 	 
C 	 -111.722 	 13.4768 	 -12.0964 	 
C 	 -110.449 	 13.9493 	 -11.6926 	 
H 	 -112.626 	 12.2872 	 -13.7511 	 
C 	 -112.93 	 13.8084 	 -11.2817 	 
H 	 -113.423 	 14.5888 	 -11.8566 	 
H 	 -112.58 	 14.1275 	 -10.2811 	 
C 	 -114.129 	 12.7709 	 -11.2114 	 
H 	 -113.796 	 11.821 	 -10.9627 	 
H 	 -114.565 	 12.6851 	 -12.1472 	 
C 	 -115.223 	 13.2828 	 -10.3197 	 
H 	 -116.072 	 12.6404 	 -10.2984 	 
H 	 -115.639 	 14.2445 	 -10.4955 	 
H 	 -114.84 	 13.3358 	 -9.32487 	 
H 	 -107.689 	 16.4364 	 -8.30437 	 
H 	 -110.187 	 12.0528 	 -14.7187 	 
