34

S 	 -47.3493 	 12.0328 	 26.5531 	 
C 	 -46.8968 	 13.6352 	 27.0507 	 
C 	 -47.9871 	 14.5196 	 26.9331 	 
C 	 -49.1201 	 13.9446 	 26.3651 	 
C 	 -48.9551 	 12.5912 	 26.2474 	 
H 	 -49.9481 	 14.4573 	 26.0259 	 
C 	 -47.8868 	 16.0557 	 27.12 	 
H 	 -46.9426 	 16.2967 	 27.6165 	 
H 	 -48.5958 	 16.2706 	 27.8291 	 
C 	 -48.2194 	 16.9307 	 25.9005 	 
H 	 -49.2502 	 16.8596 	 25.6435 	 
H 	 -48.0898 	 17.9221 	 26.308 	 
C 	 -47.383 	 16.7811 	 24.6747 	 
H 	 -47.8299 	 17.2976 	 23.8351 	 
H 	 -46.3658 	 17.1254 	 24.8064 	 
H 	 -47.2273 	 15.7685 	 24.3765 	 
S 	 -49.6948 	 10.0344 	 26.6192 	 
C 	 -51.1491 	 9.39158 	 25.9088 	 
C 	 -51.8066 	 10.332 	 25.1193 	 
C 	 -51.0672 	 11.5867 	 25.0666 	 
C 	 -49.918 	 11.5861 	 25.9088 	 
H 	 -52.5687 	 9.94615 	 24.5091 	 
C 	 -51.5878 	 12.705 	 24.0849 	 
H 	 -51.5856 	 12.2684 	 23.0732 	 
H 	 -50.9347 	 13.5929 	 24.231 	 
C 	 -52.9993 	 13.1659 	 24.4093 	 
H 	 -53.725 	 12.3202 	 24.2006 	 
H 	 -53.4238 	 13.9884 	 23.8487 	 
C 	 -53.0915 	 13.6574 	 25.8907 	 
H 	 -53.2411 	 12.8036 	 26.5102 	 
H 	 -53.9969 	 14.1368 	 25.7839 	 
H 	 -52.2898 	 14.3468 	 26.1214 	 
H 	 -45.9942 	 13.9 	 27.5623 	 
H 	 -51.512 	 8.39993 	 25.8398 	 
