34

S 	 -33.4337 	 -29.4229 	 -98.5668 	 
C 	 -32.257 	 -29.2668 	 -99.85 	 
C 	 -32.4832 	 -30.1022 	 -100.92 	 
C 	 -33.6781 	 -30.8782 	 -100.667 	 
C 	 -34.3484 	 -30.6488 	 -99.4662 	 
H 	 -33.9488 	 -31.7378 	 -101.274 	 
C 	 -31.6572 	 -30.1262 	 -102.155 	 
H 	 -31.3149 	 -31.1147 	 -102.239 	 
H 	 -30.7466 	 -29.5295 	 -102.043 	 
C 	 -32.3561 	 -29.4382 	 -103.292 	 
H 	 -33.1361 	 -30.0136 	 -103.722 	 
H 	 -32.7976 	 -28.4919 	 -102.943 	 
C 	 -31.4081 	 -29.0409 	 -104.53 	 
H 	 -31.9511 	 -28.4996 	 -105.273 	 
H 	 -30.6181 	 -28.3846 	 -104.104 	 
H 	 -30.8888 	 -29.8851 	 -105.026 	 
S 	 -36.8519 	 -30.3211 	 -98.2521 	 
C 	 -37.8974 	 -31.6899 	 -98.0625 	 
C 	 -37.4175 	 -32.7991 	 -98.7253 	 
C 	 -36.0815 	 -32.5981 	 -99.1778 	 
C 	 -35.561 	 -31.3083 	 -99.013 	 
H 	 -38.0503 	 -33.6695 	 -98.7924 	 
C 	 -35.309 	 -33.7142 	 -99.8749 	 
H 	 -34.2735 	 -33.4796 	 -100.01 	 
H 	 -35.7954 	 -33.9674 	 -100.776 	 
C 	 -35.2504 	 -35.0337 	 -99.0548 	 
H 	 -36.2594 	 -35.4136 	 -98.7842 	 
H 	 -34.7237 	 -34.8698 	 -98.1482 	 
C 	 -34.4361 	 -36.1214 	 -99.846 	 
H 	 -33.4018 	 -35.737 	 -99.8806 	 
H 	 -34.869 	 -36.2101 	 -100.845 	 
H 	 -34.3679 	 -37.0627 	 -99.3548 	 
H 	 -31.3077 	 -28.6656 	 -99.8715 	 
H 	 -38.8243 	 -31.7585 	 -97.4808 	 
