34

S 	 -143.749 	 7.7183 	 -4.01017 	 
C 	 -143.85 	 9.05801 	 -2.89311 	 
C 	 -143.426 	 8.60992 	 -1.65865 	 
C 	 -143.099 	 7.20751 	 -1.59624 	 
C 	 -143.189 	 6.53148 	 -2.81254 	 
H 	 -142.746 	 6.55691 	 -0.777776 	 
C 	 -143.332 	 9.48678 	 -0.418495 	 
H 	 -143.151 	 10.4518 	 -0.812945 	 
H 	 -142.486 	 9.16365 	 0.196088 	 
C 	 -144.634 	 9.51295 	 0.39455 	 
H 	 -145.467 	 9.91691 	 -0.249693 	 
H 	 -144.978 	 8.4602 	 0.493035 	 
C 	 -144.676 	 10.292 	 1.74747 	 
H 	 -144.243 	 9.74016 	 2.62824 	 
H 	 -144.219 	 11.2917 	 1.64968 	 
H 	 -145.713 	 10.5024 	 1.9717 	 
S 	 -144.126 	 4.19125 	 -4.02116 	 
C 	 -143.038 	 2.81436 	 -4.07101 	 
C 	 -141.808 	 3.08488 	 -3.58833 	 
C 	 -141.694 	 4.39334 	 -3.05519 	 
C 	 -142.931 	 5.1109 	 -3.10858 	 
H 	 -140.983 	 2.39968 	 -3.56485 	 
C 	 -140.473 	 5.01793 	 -2.41205 	 
H 	 -139.921 	 4.34243 	 -1.666 	 
H 	 -140.66 	 5.92096 	 -1.87414 	 
C 	 -139.331 	 5.3855 	 -3.30692 	 
H 	 -138.987 	 4.47999 	 -3.87425 	 
H 	 -138.525 	 5.73516 	 -2.72236 	 
C 	 -139.622 	 6.45335 	 -4.34496 	 
H 	 -140.413 	 6.31666 	 -5.07351 	 
H 	 -138.718 	 6.62419 	 -4.89501 	 
H 	 -139.864 	 7.50399 	 -4.06623 	 
H 	 -144.166 	 10.1008 	 -3.11688 	 
H 	 -143.378 	 1.76658 	 -4.29642 	 
