34

S 	 -93.5069 	 51.5073 	 -100.34 	 
C 	 -92.5084 	 52.1026 	 -98.9815 	 
C 	 -93.1324 	 51.9501 	 -97.742 	 
C 	 -94.4575 	 51.4452 	 -97.8944 	 
C 	 -94.8281 	 51.3655 	 -99.2302 	 
H 	 -95.1815 	 51.2257 	 -97.0757 	 
C 	 -92.4271 	 52.1722 	 -96.4059 	 
H 	 -91.7614 	 53.0257 	 -96.4716 	 
H 	 -91.6119 	 51.5485 	 -96.248 	 
C 	 -93.2803 	 52.0723 	 -95.1741 	 
H 	 -94.0423 	 52.8824 	 -95.2482 	 
H 	 -93.705 	 51.1229 	 -95.0894 	 
C 	 -92.4524 	 52.315 	 -93.8749 	 
H 	 -91.6725 	 51.6219 	 -93.692 	 
H 	 -91.9945 	 53.2722 	 -93.7316 	 
H 	 -93.1231 	 52.0982 	 -93.0249 	 
S 	 -96.1895 	 49.1973 	 -100.063 	 
C 	 -97.8474 	 49.2956 	 -100.612 	 
C 	 -98.1973 	 50.6437 	 -100.751 	 
C 	 -97.2173 	 51.5824 	 -100.233 	 
C 	 -96.0774 	 50.9117 	 -99.8005 	 
H 	 -99.1863 	 50.7316 	 -101.133 	 
C 	 -97.4716 	 53.0837 	 -100.231 	 
H 	 -97.8613 	 53.5608 	 -101.076 	 
H 	 -96.4767 	 53.4421 	 -100.023 	 
C 	 -98.3768 	 53.514 	 -99.0473 	 
H 	 -98.1252 	 52.9969 	 -98.1168 	 
H 	 -99.3266 	 53.0651 	 -99.2413 	 
C 	 -98.3744 	 55.0647 	 -98.9354 	 
H 	 -99.3016 	 55.3139 	 -98.4549 	 
H 	 -98.1325 	 55.5325 	 -99.8865 	 
H 	 -97.6464 	 55.313 	 -98.2362 	 
H 	 -91.4404 	 52.3828 	 -99.0608 	 
H 	 -98.4084 	 48.4101 	 -101.028 	 
