34

S 	 -39.4753 	 -11.6947 	 13.3934 	 
C 	 -40.6616 	 -11.0736 	 14.4706 	 
C 	 -40.4862 	 -11.5162 	 15.7589 	 
C 	 -39.2824 	 -12.2818 	 15.9614 	 
C 	 -38.5661 	 -12.3427 	 14.7762 	 
H 	 -38.8298 	 -12.6756 	 16.8897 	 
C 	 -41.3104 	 -11.0339 	 16.8723 	 
H 	 -41.1746 	 -11.6332 	 17.7905 	 
H 	 -42.3509 	 -11.2022 	 16.5419 	 
C 	 -41.3047 	 -9.54825 	 17.0683 	 
H 	 -40.3515 	 -9.03655 	 16.7738 	 
H 	 -41.9724 	 -9.10921 	 16.3164 	 
C 	 -41.7371 	 -9.20743 	 18.4682 	 
H 	 -41.4151 	 -9.96347 	 19.1654 	 
H 	 -41.3934 	 -8.2331 	 18.8572 	 
H 	 -42.8188 	 -9.15148 	 18.4896 	 
S 	 -37.0934 	 -14.6663 	 15.2015 	 
C 	 -35.3712 	 -14.5922 	 14.9289 	 
C 	 -35.0294 	 -13.3734 	 14.478 	 
C 	 -36.1051 	 -12.4946 	 14.2132 	 
C 	 -37.2988 	 -13.0052 	 14.6289 	 
H 	 -34.0171 	 -13.1355 	 14.3588 	 
C 	 -35.9002 	 -11.1672 	 13.5513 	 
H 	 -36.6947 	 -10.4806 	 13.6739 	 
H 	 -35.9598 	 -11.3782 	 12.4591 	 
C 	 -34.6197 	 -10.3595 	 13.709 	 
H 	 -34.5847 	 -9.57051 	 12.9316 	 
H 	 -33.7659 	 -11.0017 	 13.5725 	 
C 	 -34.5986 	 -9.63091 	 15.0832 	 
H 	 -35.5801 	 -9.15494 	 15.0749 	 
H 	 -33.9065 	 -8.83183 	 15.1359 	 
H 	 -34.3945 	 -10.3707 	 15.8592 	 
H 	 -41.5111 	 -10.4274 	 14.2271 	 
H 	 -34.7095 	 -15.4206 	 15.0167 	 
