34

S 	 -104.614 	 3.33332 	 -106.584 	 
C 	 -103.558 	 4.69773 	 -106.308 	 
C 	 -102.813 	 4.58749 	 -105.173 	 
C 	 -102.835 	 3.25894 	 -104.615 	 
C 	 -103.804 	 2.4715 	 -105.215 	 
H 	 -102.301 	 2.91089 	 -103.738 	 
C 	 -101.824 	 5.65918 	 -104.77 	 
H 	 -102.292 	 6.25618 	 -103.969 	 
H 	 -101.642 	 6.29038 	 -105.611 	 
C 	 -100.494 	 5.19875 	 -104.141 	 
H 	 -100.712 	 4.70225 	 -103.14 	 
H 	 -100.131 	 4.40334 	 -104.739 	 
C 	 -99.4483 	 6.30068 	 -104.042 	 
H 	 -99.2524 	 6.79579 	 -105.013 	 
H 	 -99.6924 	 6.93663 	 -103.242 	 
H 	 -98.5102 	 5.91513 	 -103.709 	 
S 	 -105.577 	 0.844624 	 -103.745 	 
C 	 -105.256 	 -0.868153 	 -103.754 	 
C 	 -104.091 	 -1.21256 	 -104.378 	 
C 	 -103.552 	 -0.0595598 	 -105.067 	 
C 	 -104.238 	 1.1103 	 -104.8 	 
H 	 -103.747 	 -2.19512 	 -104.407 	 
C 	 -102.202 	 -0.100579 	 -105.883 	 
H 	 -102.014 	 0.838467 	 -106.215 	 
H 	 -102.338 	 -0.843123 	 -106.789 	 
C 	 -100.957 	 -0.65593 	 -105.121 	 
H 	 -100.077 	 -0.343823 	 -105.674 	 
H 	 -101.039 	 -1.78633 	 -104.974 	 
C 	 -100.606 	 0.0106238 	 -103.783 	 
H 	 -101.456 	 -0.014292 	 -103.074 	 
H 	 -100.243 	 1.02438 	 -103.81 	 
H 	 -99.7627 	 -0.646914 	 -103.335 	 
H 	 -103.602 	 5.48372 	 -106.976 	 
H 	 -105.865 	 -1.5676 	 -103.107 	 
