34

S 	 28.1096 	 -24.3468 	 -122.773 	 
C 	 28.7431 	 -22.7502 	 -123.139 	 
C 	 27.8504 	 -22.0064 	 -123.859 	 
C 	 26.5779 	 -22.6928 	 -124.031 	 
C 	 26.5703 	 -23.995 	 -123.52 	 
H 	 25.7056 	 -22.2899 	 -124.393 	 
C 	 28.0364 	 -20.5414 	 -124.379 	 
H 	 29.0416 	 -20.0218 	 -124.062 	 
H 	 27.358 	 -19.866 	 -123.906 	 
C 	 27.8555 	 -20.4442 	 -125.905 	 
H 	 27.0834 	 -21.0825 	 -126.382 	 
H 	 27.5812 	 -19.362 	 -126.147 	 
C 	 29.1373 	 -20.7304 	 -126.666 	 
H 	 29.9341 	 -20.1965 	 -126.26 	 
H 	 29.3925 	 -21.8037 	 -126.582 	 
H 	 28.9169 	 -20.4203 	 -127.683 	 
S 	 26.1279 	 -26.6797 	 -123.734 	 
C 	 24.5202 	 -27.3569 	 -123.803 	 
C 	 23.5895 	 -26.3631 	 -123.795 	 
C 	 24.1428 	 -25.0463 	 -123.858 	 
C 	 25.5363 	 -25.0084 	 -123.644 	 
H 	 22.5741 	 -26.7178 	 -123.843 	 
C 	 23.2617 	 -23.8267 	 -123.96 	 
H 	 23.1495 	 -23.5977 	 -124.992 	 
H 	 23.7824 	 -23.0412 	 -123.502 	 
C 	 21.879 	 -23.9449 	 -123.297 	 
H 	 21.2188 	 -24.6471 	 -123.846 	 
H 	 21.4054 	 -22.9572 	 -123.399 	 
C 	 21.838 	 -24.3119 	 -121.744 	 
H 	 22.1594 	 -25.3364 	 -121.484 	 
H 	 20.7744 	 -24.3137 	 -121.427 	 
H 	 22.4417 	 -23.5685 	 -121.169 	 
H 	 29.6563 	 -22.3443 	 -122.759 	 
H 	 24.3231 	 -28.4207 	 -123.73 	 
