34

S 	 -134.955 	 7.92119 	 -3.29177 	 
C 	 -135.184 	 7.73448 	 -1.54846 	 
C 	 -135.52 	 9.01093 	 -1.02945 	 
C 	 -135.473 	 10.0083 	 -2.05215 	 
C 	 -135.01 	 9.62892 	 -3.29822 	 
H 	 -135.821 	 11.0413 	 -2.01396 	 
C 	 -135.975 	 9.24526 	 0.415894 	 
H 	 -135.132 	 9.48787 	 0.997104 	 
H 	 -136.453 	 8.33086 	 0.754588 	 
C 	 -136.959 	 10.364 	 0.683068 	 
H 	 -137.234 	 10.3932 	 1.71146 	 
H 	 -136.494 	 11.2933 	 0.43542 	 
C 	 -138.34 	 10.2748 	 -0.200338 	 
H 	 -138.248 	 10.4758 	 -1.23963 	 
H 	 -138.782 	 9.32015 	 -0.0152533 	 
H 	 -139.072 	 11.0447 	 0.194048 	 
S 	 -135.53 	 9.60298 	 -6.07879 	 
C 	 -135.214 	 11.1339 	 -6.95169 	 
C 	 -134.692 	 12.0816 	 -6.17234 	 
C 	 -134.571 	 11.7091 	 -4.76296 	 
C 	 -134.916 	 10.383 	 -4.53185 	 
H 	 -134.306 	 13.0238 	 -6.59052 	 
C 	 -133.977 	 12.731 	 -3.71067 	 
H 	 -133.043 	 13.2498 	 -3.95145 	 
H 	 -133.616 	 12.0882 	 -2.93243 	 
C 	 -135.122 	 13.6125 	 -3.14249 	 
H 	 -135.951 	 13.015 	 -2.81434 	 
H 	 -135.572 	 14.178 	 -3.96813 	 
C 	 -134.705 	 14.4625 	 -1.97915 	 
H 	 -135.55 	 15.0933 	 -1.7596 	 
H 	 -133.793 	 15.1133 	 -2.24262 	 
H 	 -134.594 	 13.8513 	 -1.14992 	 
H 	 -135.102 	 6.81924 	 -1.01352 	 
H 	 -135.148 	 11.3269 	 -8.00377 	 
