34

S 	 -86.9236 	 -4.44854 	 -115.048 	 
C 	 -86.8784 	 -4.4673 	 -116.813 	 
C 	 -88.0613 	 -4.05393 	 -117.397 	 
C 	 -89.0547 	 -3.75624 	 -116.427 	 
C 	 -88.567 	 -3.86493 	 -115.142 	 
H 	 -90.047 	 -3.36379 	 -116.618 	 
C 	 -88.3241 	 -3.86855 	 -118.895 	 
H 	 -89.3733 	 -3.7148 	 -118.854 	 
H 	 -88.0261 	 -4.72621 	 -119.447 	 
C 	 -87.7352 	 -2.58038 	 -119.513 	 
H 	 -87.9303 	 -2.4158 	 -120.608 	 
H 	 -88.2808 	 -1.8221 	 -119.001 	 
C 	 -86.255 	 -2.38409 	 -119.374 	 
H 	 -85.975 	 -2.36854 	 -118.34 	 
H 	 -85.6655 	 -3.08887 	 -119.932 	 
H 	 -86.0705 	 -1.40159 	 -119.782 	 
S 	 -89.3536 	 -4.96174 	 -112.7 	 
C 	 -90.3769 	 -4.04837 	 -111.647 	 
C 	 -90.7096 	 -2.80056 	 -112.141 	 
C 	 -90.204 	 -2.6296 	 -113.49 	 
C 	 -89.344 	 -3.70532 	 -113.895 	 
H 	 -91.3001 	 -2.09301 	 -111.581 	 
C 	 -90.4212 	 -1.31725 	 -114.213 	 
H 	 -91.4561 	 -1.09322 	 -114.46 	 
H 	 -90.032 	 -1.43863 	 -115.193 	 
C 	 -89.7157 	 -0.076415 	 -113.599 	 
H 	 -89.8262 	 0.0403659 	 -112.588 	 
H 	 -90.2435 	 0.782531 	 -113.964 	 
C 	 -88.2055 	 0.167548 	 -113.954 	 
H 	 -87.9219 	 1.22407 	 -113.702 	 
H 	 -88.1716 	 0.155618 	 -115.064 	 
H 	 -87.6647 	 -0.634081 	 -113.473 	 
H 	 -86.0558 	 -4.84399 	 -117.462 	 
H 	 -90.545 	 -4.37069 	 -110.624 	 
