34

S 	 -112.79 	 60.8069 	 -71.0269 	 
C 	 -111.981 	 59.2428 	 -70.6497 	 
C 	 -111.984 	 58.9836 	 -69.3219 	 
C 	 -112.475 	 60.0723 	 -68.5185 	 
C 	 -112.936 	 61.1523 	 -69.3229 	 
H 	 -112.414 	 60.0428 	 -67.4325 	 
C 	 -111.438 	 57.7348 	 -68.6397 	 
H 	 -111.984 	 56.8097 	 -68.8413 	 
H 	 -111.523 	 57.9106 	 -67.5505 	 
C 	 -109.961 	 57.5422 	 -68.8201 	 
H 	 -109.552 	 56.4628 	 -68.7485 	 
H 	 -109.742 	 57.8781 	 -69.8319 	 
C 	 -109.263 	 58.5062 	 -67.9266 	 
H 	 -109.709 	 59.5297 	 -67.8917 	 
H 	 -109.239 	 58.1829 	 -66.9154 	 
H 	 -108.191 	 58.4759 	 -68.1995 	 
S 	 -112.257 	 63.7392 	 -68.7693 	 
C 	 -113.46 	 64.7736 	 -67.9716 	 
C 	 -114.564 	 64.0644 	 -67.5727 	 
C 	 -114.574 	 62.7147 	 -68.0565 	 
C 	 -113.434 	 62.4392 	 -68.8285 	 
H 	 -115.412 	 64.4928 	 -66.9939 	 
C 	 -115.796 	 61.7698 	 -67.661 	 
H 	 -116.072 	 61.8084 	 -66.5565 	 
H 	 -115.613 	 60.7129 	 -68.045 	 
C 	 -117.214 	 62.0982 	 -68.2079 	 
H 	 -117.406 	 63.1079 	 -67.9926 	 
H 	 -117.941 	 61.4422 	 -67.7868 	 
C 	 -117.324 	 62.1209 	 -69.7757 	 
H 	 -116.73 	 61.2079 	 -70.1431 	 
H 	 -116.819 	 63.0568 	 -70.1204 	 
H 	 -118.385 	 62.1099 	 -70.0609 	 
H 	 -111.505 	 58.4871 	 -71.2838 	 
H 	 -113.253 	 65.7794 	 -67.6908 	 
