34

S 	 -65.6729 	 20.4414 	 -118.761 	 
C 	 -64.4245 	 20.9419 	 -119.864 	 
C 	 -63.2497 	 21.2421 	 -119.223 	 
C 	 -63.3329 	 20.9569 	 -117.831 	 
C 	 -64.6305 	 20.6332 	 -117.371 	 
H 	 -62.53 	 20.9787 	 -117.097 	 
C 	 -61.9882 	 21.8785 	 -119.736 	 
H 	 -61.7975 	 22.8149 	 -119.059 	 
H 	 -62.1656 	 22.4301 	 -120.664 	 
C 	 -60.7898 	 20.9528 	 -120.126 	 
H 	 -60.5121 	 20.2261 	 -119.34 	 
H 	 -61.2036 	 20.2881 	 -120.841 	 
C 	 -59.4734 	 21.5715 	 -120.641 	 
H 	 -59.5591 	 22.1616 	 -121.555 	 
H 	 -59.0832 	 22.2783 	 -119.929 	 
H 	 -58.7083 	 20.7443 	 -120.811 	 
S 	 -66.1123 	 19.0164 	 -115.73 	 
C 	 -66.0563 	 19.2727 	 -114 	 
C 	 -65.1153 	 20.2397 	 -113.625 	 
C 	 -64.5775 	 20.9452 	 -114.769 	 
C 	 -64.9979 	 20.3957 	 -116.007 	 
H 	 -64.8879 	 20.3934 	 -112.565 	 
C 	 -63.5746 	 22.1393 	 -114.633 	 
H 	 -63.5556 	 22.6842 	 -115.599 	 
H 	 -62.5422 	 21.7687 	 -114.555 	 
C 	 -63.6875 	 22.9757 	 -113.342 	 
H 	 -63.414 	 22.3077 	 -112.515 	 
H 	 -64.706 	 23.173 	 -113.093 	 
C 	 -62.9099 	 24.2718 	 -113.258 	 
H 	 -63.1551 	 25.0775 	 -113.995 	 
H 	 -61.8619 	 24.013 	 -113.447 	 
H 	 -62.9836 	 24.5978 	 -112.248 	 
H 	 -64.5681 	 21.0607 	 -120.952 	 
H 	 -66.4939 	 18.5392 	 -113.298 	 
