34

S 	 -76.3884 	 -18.9385 	 -57.8499 	 
C 	 -75.8699 	 -17.7972 	 -56.6218 	 
C 	 -76.8181 	 -16.8823 	 -56.2149 	 
C 	 -77.935 	 -16.9301 	 -57.0732 	 
C 	 -77.8482 	 -17.9578 	 -58.0388 	 
H 	 -78.8185 	 -16.3495 	 -56.9051 	 
C 	 -76.7817 	 -16.0489 	 -55.0703 	 
H 	 -76.8045 	 -16.8566 	 -54.343 	 
H 	 -77.731 	 -15.5382 	 -55.0569 	 
C 	 -75.5363 	 -15.1583 	 -55.0084 	 
H 	 -74.8093 	 -15.7955 	 -54.5091 	 
H 	 -75.0888 	 -14.9054 	 -56.0305 	 
C 	 -75.8474 	 -13.9211 	 -54.1444 	 
H 	 -76.5405 	 -13.2892 	 -54.7159 	 
H 	 -76.2564 	 -14.2004 	 -53.1423 	 
H 	 -75.034 	 -13.2214 	 -54.0449 	 
S 	 -79.1922 	 -17.6587 	 -60.4668 	 
C 	 -80.3658 	 -18.8321 	 -60.9978 	 
C 	 -80.7204 	 -19.5333 	 -59.878 	 
C 	 -79.8982 	 -19.3839 	 -58.75 	 
C 	 -78.9219 	 -18.4163 	 -58.9095 	 
H 	 -81.5615 	 -20.1615 	 -59.9507 	 
C 	 -80.1431 	 -20.1214 	 -57.4704 	 
H 	 -81.1877 	 -20.0639 	 -57.1884 	 
H 	 -79.5058 	 -19.552 	 -56.7069 	 
C 	 -79.6059 	 -21.5259 	 -57.4473 	 
H 	 -78.5514 	 -21.4872 	 -57.6629 	 
H 	 -80.0128 	 -22.0987 	 -58.3044 	 
C 	 -79.7089 	 -22.2344 	 -56.0793 	 
H 	 -79.2649 	 -23.2582 	 -56.1088 	 
H 	 -80.6507 	 -22.2962 	 -55.5734 	 
H 	 -79.1486 	 -21.6242 	 -55.4651 	 
H 	 -75.0752 	 -18.0877 	 -55.9968 	 
H 	 -80.94 	 -18.8199 	 -61.9347 	 
