34

S 	 -87.3763 	 -47.5491 	 -68.6323 	 
C 	 -85.8242 	 -46.8549 	 -69.0568 	 
C 	 -85.8186 	 -46.5858 	 -70.418 	 
C 	 -87.104 	 -46.9137 	 -71.1055 	 
C 	 -88.0714 	 -47.4348 	 -70.2394 	 
H 	 -87.3782 	 -46.7394 	 -72.1225 	 
C 	 -84.5928 	 -45.9749 	 -71.0887 	 
H 	 -84.1008 	 -46.7966 	 -71.727 	 
H 	 -83.8884 	 -45.7064 	 -70.2935 	 
C 	 -84.7888 	 -44.7782 	 -72.0537 	 
H 	 -83.8127 	 -44.3953 	 -72.2779 	 
H 	 -85.2337 	 -45.1367 	 -72.9457 	 
C 	 -85.4276 	 -43.5937 	 -71.3083 	 
H 	 -85.1337 	 -43.5505 	 -70.2916 	 
H 	 -85.3246 	 -42.6561 	 -71.6986 	 
H 	 -86.4858 	 -43.7781 	 -71.1461 	 
S 	 -90.5635 	 -46.7857 	 -71.3235 	 
C 	 -91.7294 	 -48.0219 	 -71.473 	 
C 	 -91.429 	 -49.1044 	 -70.6423 	 
C 	 -90.0293 	 -49.1581 	 -70.3332 	 
C 	 -89.3759 	 -47.9502 	 -70.587 	 
H 	 -92.1542 	 -49.9334 	 -70.5155 	 
C 	 -89.3178 	 -50.4095 	 -69.7326 	 
H 	 -90.1214 	 -51.0827 	 -69.4669 	 
H 	 -88.7919 	 -50.1668 	 -68.8153 	 
C 	 -88.2998 	 -50.9899 	 -70.6468 	 
H 	 -87.5412 	 -51.5796 	 -70.1411 	 
H 	 -87.8712 	 -50.048 	 -71.0691 	 
C 	 -89.0329 	 -51.7651 	 -71.7621 	 
H 	 -88.2591 	 -52.3344 	 -72.3601 	 
H 	 -89.6499 	 -51.1517 	 -72.411 	 
H 	 -89.5996 	 -52.4777 	 -71.1769 	 
H 	 -85.0306 	 -46.7642 	 -68.3256 	 
H 	 -92.6981 	 -47.9327 	 -71.8494 	 
