34

S 	 -49.6176 	 3.12435 	 -23.3499 	 
C 	 -48.6362 	 1.75923 	 -23.9412 	 
C 	 -49.4604 	 0.74576 	 -24.4892 	 
C 	 -50.8402 	 1.08297 	 -24.4065 	 
C 	 -51.1234 	 2.26112 	 -23.7027 	 
H 	 -51.7159 	 0.491409 	 -24.7581 	 
C 	 -49.0209 	 -0.706244 	 -24.7315 	 
H 	 -47.9277 	 -0.613061 	 -24.7474 	 
H 	 -49.4238 	 -1.09057 	 -25.6693 	 
C 	 -49.3517 	 -1.71452 	 -23.6184 	 
H 	 -48.9705 	 -1.3428 	 -22.6712 	 
H 	 -50.4383 	 -1.83692 	 -23.4928 	 
C 	 -48.6591 	 -2.96282 	 -23.8546 	 
H 	 -48.9621 	 -3.41043 	 -24.8693 	 
H 	 -47.561 	 -2.82337 	 -23.987 	 
H 	 -48.9343 	 -3.79489 	 -23.0894 	 
S 	 -53.0619 	 4.31286 	 -23.7345 	 
C 	 -54.4415 	 4.16232 	 -22.7141 	 
C 	 -54.3668 	 2.96369 	 -22.0495 	 
C 	 -53.311 	 2.12278 	 -22.3577 	 
C 	 -52.3995 	 2.75791 	 -23.1902 	 
H 	 -55.1465 	 2.75333 	 -21.2852 	 
C 	 -53.2719 	 0.706831 	 -21.7766 	 
H 	 -52.6839 	 0.097828 	 -22.4026 	 
H 	 -54.239 	 0.194504 	 -21.9224 	 
C 	 -52.7785 	 0.423408 	 -20.3048 	 
H 	 -52.6448 	 -0.611474 	 -20.1061 	 
H 	 -53.5561 	 0.652274 	 -19.6232 	 
C 	 -51.5733 	 1.26281 	 -19.9047 	 
H 	 -51.2227 	 0.94151 	 -18.8976 	 
H 	 -51.7589 	 2.29862 	 -19.8951 	 
H 	 -50.6853 	 1.1674 	 -20.5463 	 
H 	 -47.6581 	 1.56243 	 -23.6425 	 
H 	 -55.2709 	 4.88333 	 -22.6795 	 
