34

S 	 -46.6436 	 -50.4134 	 -74.6345 	 
C 	 -46.2084 	 -48.6957 	 -74.7724 	 
C 	 -45.2087 	 -48.3007 	 -73.8824 	 
C 	 -45.1572 	 -49.3197 	 -72.9041 	 
C 	 -45.8985 	 -50.4528 	 -73.0514 	 
H 	 -44.6788 	 -49.2214 	 -71.9231 	 
C 	 -44.5203 	 -46.9925 	 -73.8076 	 
H 	 -44.961 	 -46.2603 	 -73.0748 	 
H 	 -44.5376 	 -46.6571 	 -74.8818 	 
C 	 -43.0114 	 -46.9161 	 -73.4356 	 
H 	 -42.9762 	 -47.2182 	 -72.3469 	 
H 	 -42.3611 	 -47.5644 	 -73.9472 	 
C 	 -42.4697 	 -45.4894 	 -73.3589 	 
H 	 -41.4303 	 -45.477 	 -73.1176 	 
H 	 -42.2551 	 -45.0527 	 -74.3639 	 
H 	 -43.0698 	 -44.7283 	 -72.758 	 
S 	 -45.5641 	 -53.214 	 -73.0449 	 
C 	 -45.7616 	 -54.0244 	 -71.5094 	 
C 	 -46.1916 	 -53.1858 	 -70.5074 	 
C 	 -46.3126 	 -51.7967 	 -70.8937 	 
C 	 -45.9111 	 -51.649 	 -72.241 	 
H 	 -46.5431 	 -53.6236 	 -69.6141 	 
C 	 -46.9548 	 -50.7498 	 -69.9959 	 
H 	 -47.7233 	 -51.2041 	 -69.3849 	 
H 	 -47.3138 	 -50.0516 	 -70.7301 	 
C 	 -46.0709 	 -49.9074 	 -69.0857 	 
H 	 -46.7697 	 -49.0468 	 -68.7416 	 
H 	 -45.2336 	 -49.442 	 -69.6694 	 
C 	 -45.5816 	 -50.7018 	 -67.834 	 
H 	 -44.9551 	 -51.4793 	 -68.2382 	 
H 	 -46.4174 	 -51.1923 	 -67.2881 	 
H 	 -44.8531 	 -50.1947 	 -67.1681 	 
H 	 -46.3118 	 -48.047 	 -75.609 	 
H 	 -45.6949 	 -55.0813 	 -71.4001 	 
