34

S 	 -62.1028 	 13.3794 	 -86.8364 	 
C 	 -61.6078 	 14.1295 	 -88.3712 	 
C 	 -60.2106 	 13.8843 	 -88.4383 	 
C 	 -59.6193 	 13.235 	 -87.2401 	 
C 	 -60.5833 	 12.8123 	 -86.3449 	 
H 	 -58.5751 	 13.0139 	 -87.1395 	 
C 	 -59.3401 	 14.302 	 -89.5916 	 
H 	 -59.9165 	 13.9704 	 -90.4686 	 
H 	 -58.4871 	 13.7038 	 -89.5054 	 
C 	 -58.9224 	 15.8046 	 -89.5707 	 
H 	 -58.4117 	 16.0811 	 -88.574 	 
H 	 -58.1272 	 16.0426 	 -90.2942 	 
C 	 -60.01 	 16.822 	 -90.0414 	 
H 	 -60.3812 	 16.5599 	 -90.9839 	 
H 	 -60.8683 	 16.9446 	 -89.3895 	 
H 	 -59.5856 	 17.7742 	 -90.0332 	 
S 	 -61.0346 	 12.5863 	 -83.7308 	 
C 	 -60.2175 	 11.2411 	 -82.8667 	 
C 	 -59.5868 	 10.3335 	 -83.6998 	 
C 	 -59.6082 	 10.7611 	 -85.0869 	 
C 	 -60.361 	 11.9624 	 -85.2186 	 
H 	 -59.0878 	 9.49726 	 -83.1836 	 
C 	 -58.8461 	 9.96877 	 -86.1583 	 
H 	 -57.8803 	 9.63009 	 -85.7709 	 
H 	 -58.6825 	 10.5962 	 -87.008 	 
C 	 -59.5263 	 8.73517 	 -86.7532 	 
H 	 -58.8569 	 8.40567 	 -87.6018 	 
H 	 -60.4599 	 9.07732 	 -87.1247 	 
C 	 -59.8332 	 7.4818 	 -85.8778 	 
H 	 -60.3395 	 7.72483 	 -84.9396 	 
H 	 -58.9185 	 7.0223 	 -85.6404 	 
H 	 -60.3026 	 6.72389 	 -86.4433 	 
H 	 -62.211 	 14.6168 	 -89.1411 	 
H 	 -60.1621 	 11.1616 	 -81.7992 	 
