34

S 	 -43.0637 	 19.1254 	 21.0168 	 
C 	 -42.6642 	 18.1637 	 19.6283 	 
C 	 -42.5903 	 16.8276 	 19.9193 	 
C 	 -43.0417 	 16.5923 	 21.2988 	 
C 	 -43.2892 	 17.7017 	 22.0539 	 
H 	 -43.2061 	 15.6285 	 21.7652 	 
C 	 -42.1062 	 15.6761 	 19.0643 	 
H 	 -42.0828 	 15.9484 	 18.0009 	 
H 	 -42.8135 	 14.8385 	 19.2009 	 
C 	 -40.7049 	 15.211 	 19.4998 	 
H 	 -40.45 	 15.1072 	 20.5417 	 
H 	 -40.3894 	 14.2018 	 19.1464 	 
C 	 -39.5658 	 16.1458 	 19.0364 	 
H 	 -38.5695 	 15.8599 	 19.3521 	 
H 	 -39.6249 	 16.3236 	 17.9029 	 
H 	 -39.7603 	 17.1349 	 19.492 	 
S 	 -45.0414 	 17.0101 	 23.9604 	 
C 	 -44.9371 	 17.7225 	 25.5675 	 
C 	 -43.8324 	 18.4803 	 25.708 	 
C 	 -43.0595 	 18.6268 	 24.4845 	 
C 	 -43.5876 	 17.8116 	 23.4684 	 
H 	 -43.6022 	 18.9047 	 26.6696 	 
C 	 -41.7794 	 19.3328 	 24.4368 	 
H 	 -41.8095 	 20.0488 	 25.1815 	 
H 	 -41.6597 	 19.6891 	 23.441 	 
C 	 -40.4546 	 18.5667 	 24.8138 	 
H 	 -40.5765 	 18.3148 	 25.8583 	 
H 	 -39.7055 	 19.3644 	 24.8373 	 
C 	 -40.055 	 17.4045 	 23.8493 	 
H 	 -39.0278 	 17.0667 	 24.0807 	 
H 	 -40.0842 	 17.789 	 22.7965 	 
H 	 -40.6594 	 16.54 	 23.994 	 
H 	 -42.3871 	 18.6182 	 18.7254 	 
H 	 -45.6917 	 17.6587 	 26.3036 	 
