34

S 	 -92.8336 	 4.8539 	 -2.87783 	 
C 	 -91.2212 	 4.46742 	 -3.42341 	 
C 	 -90.2554 	 4.856 	 -2.52284 	 
C 	 -90.7889 	 5.42072 	 -1.29081 	 
C 	 -92.1916 	 5.38982 	 -1.27547 	 
H 	 -90.1892 	 5.79249 	 -0.439976 	 
C 	 -88.8142 	 4.77502 	 -2.71134 	 
H 	 -88.3923 	 5.74807 	 -2.29767 	 
H 	 -88.7625 	 4.8764 	 -3.7589 	 
C 	 -88.0662 	 3.57582 	 -2.09132 	 
H 	 -88.3398 	 3.22295 	 -1.07507 	 
H 	 -88.3258 	 2.71977 	 -2.69365 	 
C 	 -86.5734 	 3.74241 	 -2.05004 	 
H 	 -86.1325 	 4.52176 	 -1.50235 	 
H 	 -86.1439 	 2.79146 	 -1.63509 	 
H 	 -86.3971 	 3.77763 	 -3.08294 	 
S 	 -94.4304 	 6.87127 	 -0.955702 	 
C 	 -94.7892 	 7.56392 	 0.564019 	 
C 	 -93.8684 	 7.24093 	 1.5298 	 
C 	 -92.9605 	 6.24815 	 1.11421 	 
C 	 -93.0845 	 5.98457 	 -0.267561 	 
H 	 -93.883 	 7.55664 	 2.56551 	 
C 	 -91.928 	 5.69834 	 2.0733 	 
H 	 -92.0164 	 6.24404 	 3.01693 	 
H 	 -90.8813 	 5.9655 	 1.68553 	 
C 	 -91.9592 	 4.1535 	 2.33476 	 
H 	 -92.9555 	 3.77317 	 2.29114 	 
H 	 -91.7675 	 4.06847 	 3.33011 	 
C 	 -91.0604 	 3.36727 	 1.438 	 
H 	 -90.027 	 3.71297 	 1.52601 	 
H 	 -91.313 	 3.28083 	 0.37974 	 
H 	 -90.9891 	 2.32924 	 1.83168 	 
H 	 -91.0045 	 4.00438 	 -4.37602 	 
H 	 -95.6114 	 8.16229 	 0.747202 	 
