34

S 	 43.9457 	 -14.6496 	 -127.121 	 
C 	 44.7933 	 -13.1447 	 -127.321 	 
C 	 44.8464 	 -12.4752 	 -126.128 	 
C 	 44.2421 	 -13.2303 	 -125.028 	 
C 	 43.6291 	 -14.4382 	 -125.466 	 
H 	 44.1619 	 -12.8822 	 -123.96 	 
C 	 45.4388 	 -11.0507 	 -125.988 	 
H 	 46.2481 	 -10.8097 	 -126.706 	 
H 	 45.9512 	 -11.0038 	 -125.045 	 
C 	 44.3986 	 -10.0124 	 -126.082 	 
H 	 43.5874 	 -10.0707 	 -125.334 	 
H 	 44.8491 	 -9.09088 	 -125.788 	 
C 	 43.7357 	 -9.90513 	 -127.51 	 
H 	 44.5783 	 -9.61985 	 -128.172 	 
H 	 43.49 	 -10.9163 	 -127.838 	 
H 	 42.8803 	 -9.27107 	 -127.516 	 
S 	 43.9251 	 -16.1357 	 -123.283 	 
C 	 42.8064 	 -17.4471 	 -123.101 	 
C 	 41.7163 	 -17.3393 	 -123.96 	 
C 	 41.754 	 -16.2169 	 -124.849 	 
C 	 42.9614 	 -15.4605 	 -124.684 	 
H 	 40.9055 	 -18.1037 	 -123.808 	 
C 	 40.8158 	 -15.8062 	 -125.945 	 
H 	 41.0733 	 -14.6989 	 -126.123 	 
H 	 39.7693 	 -15.9291 	 -125.624 	 
C 	 40.9657 	 -16.683 	 -127.159 	 
H 	 42.0316 	 -16.8162 	 -127.299 	 
H 	 40.6231 	 -16.1437 	 -128.024 	 
C 	 40.2175 	 -18.0076 	 -126.926 	 
H 	 40.31 	 -18.5031 	 -127.919 	 
H 	 39.1349 	 -17.9645 	 -126.885 	 
H 	 40.5137 	 -18.6436 	 -126.082 	 
H 	 44.9745 	 -12.7314 	 -128.28 	 
H 	 42.9257 	 -18.2955 	 -122.382 	 
