34

S 	 -128.074 	 65.8084 	 -41.7037 	 
C 	 -126.378 	 65.7367 	 -42.2938 	 
C 	 -125.567 	 65.2197 	 -41.3065 	 
C 	 -126.254 	 64.966 	 -40.0899 	 
C 	 -127.604 	 65.2417 	 -40.1137 	 
H 	 -125.851 	 64.5309 	 -39.1997 	 
C 	 -124.077 	 65.0392 	 -41.3162 	 
H 	 -123.79 	 65.4832 	 -40.363 	 
H 	 -123.62 	 65.6857 	 -42.026 	 
C 	 -123.468 	 63.6305 	 -41.328 	 
H 	 -122.398 	 63.7511 	 -41.5254 	 
H 	 -123.594 	 63.2441 	 -40.3441 	 
C 	 -123.946 	 62.6541 	 -42.339 	 
H 	 -124.072 	 63.1964 	 -43.2664 	 
H 	 -123.14 	 61.8799 	 -42.4759 	 
H 	 -124.878 	 62.1839 	 -42.1318 	 
S 	 -130.12 	 64.6259 	 -39.2947 	 
C 	 -130.33 	 64.3503 	 -37.6197 	 
C 	 -129.315 	 64.8724 	 -36.8295 	 
C 	 -128.288 	 65.4103 	 -37.6672 	 
C 	 -128.545 	 65.2173 	 -38.9964 	 
H 	 -129.34 	 64.8312 	 -35.7432 	 
C 	 -126.933 	 65.9264 	 -37.1542 	 
H 	 -126.59 	 66.586 	 -37.9119 	 
H 	 -126.223 	 65.1058 	 -37.0831 	 
C 	 -126.856 	 66.7899 	 -35.8754 	 
H 	 -127.086 	 66.0432 	 -35.0794 	 
H 	 -127.579 	 67.5061 	 -36.0565 	 
C 	 -125.457 	 67.4794 	 -35.6846 	 
H 	 -125.313 	 67.6802 	 -34.6502 	 
H 	 -125.215 	 68.3967 	 -36.1865 	 
H 	 -124.657 	 66.7901 	 -36.0264 	 
H 	 -126.033 	 65.9934 	 -43.2472 	 
H 	 -131.251 	 63.8758 	 -37.2242 	 
