34

S 	 -49.1148 	 8.689 	 -17.8867 	 
C 	 -49.8351 	 8.20501 	 -16.3686 	 
C 	 -49.942 	 9.24528 	 -15.4049 	 
C 	 -49.3744 	 10.428 	 -15.9865 	 
C 	 -48.7562 	 10.2879 	 -17.2269 	 
H 	 -49.3175 	 11.3556 	 -15.551 	 
C 	 -50.5876 	 9.25404 	 -14.0352 	 
H 	 -50.0346 	 9.97252 	 -13.4224 	 
H 	 -50.2951 	 8.31649 	 -13.5519 	 
C 	 -52.1768 	 9.43691 	 -13.8587 	 
H 	 -52.3251 	 10.4672 	 -14.2251 	 
H 	 -52.7605 	 8.71869 	 -14.4274 	 
C 	 -52.4844 	 9.29232 	 -12.3093 	 
H 	 -52.1054 	 10.1147 	 -11.7975 	 
H 	 -53.54 	 9.28685 	 -12.1498 	 
H 	 -52.1956 	 8.31531 	 -11.8794 	 
S 	 -46.9718 	 10.5722 	 -19.2397 	 
C 	 -46.3499 	 12.1196 	 -19.6947 	 
C 	 -47.0241 	 13.1088 	 -19.0718 	 
C 	 -47.9217 	 12.6619 	 -18.0775 	 
C 	 -48.0463 	 11.2489 	 -18.0196 	 
H 	 -46.8636 	 14.1069 	 -19.3671 	 
C 	 -48.7706 	 13.6793 	 -17.3546 	 
H 	 -48.3884 	 14.6882 	 -17.2486 	 
H 	 -48.6035 	 13.4116 	 -16.3631 	 
C 	 -50.2116 	 13.6203 	 -17.8409 	 
H 	 -50.6126 	 12.6916 	 -17.3736 	 
H 	 -50.2822 	 13.4602 	 -18.9256 	 
C 	 -51.0253 	 14.8698 	 -17.3884 	 
H 	 -50.6633 	 15.8355 	 -17.8103 	 
H 	 -50.9332 	 14.9944 	 -16.3288 	 
H 	 -52.0833 	 14.7708 	 -17.5762 	 
H 	 -50.3341 	 7.34566 	 -16.2542 	 
H 	 -45.5659 	 12.3093 	 -20.469 	 
