34

S 	 -57.2857 	 10.5067 	 -91.1842 	 
C 	 -56.374 	 9.22576 	 -91.9102 	 
C 	 -55.2628 	 9.70407 	 -92.6031 	 
C 	 -55.2276 	 11.098 	 -92.6614 	 
C 	 -56.223 	 11.7356 	 -91.9508 	 
H 	 -54.5419 	 11.7613 	 -93.1769 	 
C 	 -54.3338 	 8.88942 	 -93.4271 	 
H 	 -53.9503 	 9.37054 	 -94.31 	 
H 	 -54.885 	 8.02182 	 -93.7001 	 
C 	 -53.0743 	 8.24992 	 -92.7236 	 
H 	 -52.4829 	 9.00464 	 -92.1388 	 
H 	 -53.3557 	 7.47083 	 -92.0827 	 
C 	 -52.2207 	 7.54801 	 -93.7695 	 
H 	 -51.58 	 8.19093 	 -94.3046 	 
H 	 -51.5265 	 6.82649 	 -93.2461 	 
H 	 -52.9015 	 7.00108 	 -94.4003 	 
S 	 -57.4392 	 13.6028 	 -90.3257 	 
C 	 -57.4077 	 15.2973 	 -90.7527 	 
C 	 -56.7574 	 15.5341 	 -91.9811 	 
C 	 -56.1626 	 14.3182 	 -92.5081 	 
C 	 -56.4794 	 13.1796 	 -91.7599 	 
H 	 -56.7645 	 16.4642 	 -92.4682 	 
C 	 -55.6744 	 14.3251 	 -93.9424 	 
H 	 -56.0964 	 15.2558 	 -94.4004 	 
H 	 -56.1551 	 13.5784 	 -94.4737 	 
C 	 -54.1443 	 14.5809 	 -94.0441 	 
H 	 -53.5825 	 13.7359 	 -93.6978 	 
H 	 -53.9862 	 15.4286 	 -93.3514 	 
C 	 -53.6612 	 15.1271 	 -95.3949 	 
H 	 -54.4093 	 15.8215 	 -95.8934 	 
H 	 -53.4051 	 14.4334 	 -96.2351 	 
H 	 -52.6928 	 15.6676 	 -95.3332 	 
H 	 -56.6302 	 8.18469 	 -91.889 	 
H 	 -57.9831 	 16.0346 	 -90.1979 	 
