34

S 	 -89.6106 	 -3.88445 	 -61.3775 	 
C 	 -90.3602 	 -2.57323 	 -62.1993 	 
C 	 -89.394 	 -1.77716 	 -62.8405 	 
C 	 -88.0562 	 -2.22755 	 -62.6018 	 
C 	 -87.979 	 -3.35241 	 -61.7921 	 
H 	 -87.1838 	 -1.73529 	 -63.0275 	 
C 	 -89.7633 	 -0.562698 	 -63.6797 	 
H 	 -89.3748 	 0.411198 	 -63.3676 	 
H 	 -90.831 	 -0.299309 	 -63.5946 	 
C 	 -89.4914 	 -0.732574 	 -65.2213 	 
H 	 -89.7415 	 0.188854 	 -65.7673 	 
H 	 -88.3684 	 -0.712775 	 -65.2003 	 
C 	 -90.0883 	 -1.93019 	 -65.862 	 
H 	 -90.8793 	 -2.10571 	 -65.2279 	 
H 	 -90.4537 	 -1.72589 	 -66.9177 	 
H 	 -89.4737 	 -2.79588 	 -65.8761 	 
S 	 -87.1818 	 -5.7609 	 -61.0798 	 
C 	 -85.4588 	 -6.19943 	 -60.7705 	 
C 	 -84.7065 	 -5.02692 	 -60.8586 	 
C 	 -85.4658 	 -3.87532 	 -61.1328 	 
C 	 -86.8245 	 -4.07644 	 -61.3641 	 
H 	 -83.6422 	 -5.02918 	 -60.7519 	 
C 	 -84.81 	 -2.56684 	 -61.2886 	 
H 	 -84.3248 	 -2.25846 	 -60.3892 	 
H 	 -85.5158 	 -1.80066 	 -61.4189 	 
C 	 -83.8877 	 -2.55037 	 -62.4731 	 
H 	 -84.3175 	 -3.20384 	 -63.2811 	 
H 	 -82.9648 	 -3.01656 	 -62.2126 	 
C 	 -83.4432 	 -1.22998 	 -63.1121 	 
H 	 -82.7176 	 -0.782007 	 -62.4548 	 
H 	 -84.1999 	 -0.394415 	 -63.0473 	 
H 	 -83.1167 	 -1.34213 	 -64.1533 	 
H 	 -91.3838 	 -2.50825 	 -62.3657 	 
H 	 -85.1371 	 -7.07704 	 -60.3284 	 
