34

S 	 -111.472 	 30.8198 	 -22.7778 	 
C 	 -112.794 	 31.3091 	 -23.8935 	 
C 	 -113.969 	 30.6947 	 -23.5425 	 
C 	 -113.776 	 29.7025 	 -22.5066 	 
C 	 -112.452 	 29.6223 	 -22.0504 	 
H 	 -114.469 	 29.0954 	 -21.9788 	 
C 	 -115.312 	 30.8272 	 -24.2228 	 
H 	 -115.541 	 31.8842 	 -24.093 	 
H 	 -116.044 	 30.3304 	 -23.6681 	 
C 	 -115.325 	 30.4391 	 -25.6762 	 
H 	 -114.372 	 30.8024 	 -26.0249 	 
H 	 -115.275 	 29.3657 	 -25.6646 	 
C 	 -116.398 	 31.0492 	 -26.6225 	 
H 	 -117.331 	 30.4062 	 -26.6376 	 
H 	 -116.594 	 32.1284 	 -26.4547 	 
H 	 -116.014 	 30.9627 	 -27.6591 	 
S 	 -110.693 	 29.3547 	 -19.8299 	 
C 	 -110.813 	 27.855 	 -18.9139 	 
C 	 -111.637 	 26.9606 	 -19.5147 	 
C 	 -112.294 	 27.4658 	 -20.6841 	 
C 	 -111.944 	 28.7643 	 -20.935 	 
H 	 -111.853 	 26.0383 	 -18.9792 	 
C 	 -113.173 	 26.5375 	 -21.527 	 
H 	 -112.831 	 26.7525 	 -22.5951 	 
H 	 -114.171 	 26.9342 	 -21.5397 	 
C 	 -113.165 	 24.9693 	 -21.388 	 
H 	 -113.372 	 24.6652 	 -20.3083 	 
H 	 -112.132 	 24.7097 	 -21.4902 	 
C 	 -114.086 	 24.2262 	 -22.3885 	 
H 	 -115.023 	 24.6101 	 -22.3912 	 
H 	 -114.254 	 23.2395 	 -22.1059 	 
H 	 -113.633 	 24.3404 	 -23.3928 	 
H 	 -112.735 	 32.1447 	 -24.511 	 
H 	 -110.67 	 27.6742 	 -17.8986 	 
