34

S 	 -64.5605 	 14.7653 	 -105.595 	 
C 	 -65.4392 	 16.2355 	 -105.04 	 
C 	 -64.7767 	 16.8099 	 -103.99 	 
C 	 -63.536 	 16.1514 	 -103.704 	 
C 	 -63.2565 	 15.1125 	 -104.572 	 
H 	 -62.8684 	 16.3591 	 -102.863 	 
C 	 -65.1811 	 18.042 	 -103.257 	 
H 	 -65.1983 	 17.8071 	 -102.181 	 
H 	 -66.1646 	 18.4515 	 -103.561 	 
C 	 -64.2078 	 19.2718 	 -103.418 	 
H 	 -63.1613 	 19.0102 	 -103.225 	 
H 	 -64.2326 	 19.5244 	 -104.474 	 
C 	 -64.6225 	 20.3898 	 -102.449 	 
H 	 -65.6292 	 20.6357 	 -102.715 	 
H 	 -64.5412 	 19.9896 	 -101.41 	 
H 	 -63.9876 	 21.2527 	 -102.506 	 
S 	 -62.3088 	 12.5543 	 -104.115 	 
C 	 -60.6364 	 12.1592 	 -104.176 	 
C 	 -59.9174 	 13.3144 	 -104.369 	 
C 	 -60.7024 	 14.4917 	 -104.632 	 
C 	 -62.0798 	 14.2243 	 -104.473 	 
H 	 -58.8258 	 13.2615 	 -104.38 	 
C 	 -60.1542 	 15.8785 	 -104.909 	 
H 	 -60.9831 	 16.4082 	 -105.262 	 
H 	 -59.3957 	 15.7766 	 -105.77 	 
C 	 -59.6005 	 16.66 	 -103.725 	 
H 	 -58.8225 	 16.1613 	 -103.164 	 
H 	 -60.4359 	 16.7921 	 -103.046 	 
C 	 -58.9498 	 18.0566 	 -103.992 	 
H 	 -58.0473 	 18.0538 	 -104.672 	 
H 	 -58.6614 	 18.673 	 -103.147 	 
H 	 -59.7368 	 18.5509 	 -104.575 	 
H 	 -66.3935 	 16.4765 	 -105.505 	 
H 	 -60.0416 	 11.2857 	 -103.929 	 
