34

S 	 -43.6819 	 16.7531 	 -101.967 	 
C 	 -44.768 	 17.8545 	 -101.096 	 
C 	 -44.0867 	 18.4777 	 -100.064 	 
C 	 -42.6749 	 18.3396 	 -100.181 	 
C 	 -42.2718 	 17.4219 	 -101.147 	 
H 	 -41.9191 	 18.7215 	 -99.5667 	 
C 	 -44.7702 	 19.3433 	 -98.969 	 
H 	 -45.8132 	 19.5524 	 -99.3676 	 
H 	 -44.2356 	 20.2918 	 -98.8281 	 
C 	 -44.822 	 18.7196 	 -97.5641 	 
H 	 -43.7275 	 18.7095 	 -97.2491 	 
H 	 -45.4041 	 19.5075 	 -96.989 	 
C 	 -45.4676 	 17.3431 	 -97.3888 	 
H 	 -46.563 	 17.3756 	 -97.8209 	 
H 	 -44.9221 	 16.5352 	 -97.9152 	 
H 	 -45.5118 	 16.9455 	 -96.3664 	 
S 	 -40.0342 	 16.1262 	 -100.075 	 
C 	 -38.612 	 16.1144 	 -101.02 	 
C 	 -38.9086 	 16.3177 	 -102.344 	 
C 	 -40.2875 	 16.7241 	 -102.596 	 
C 	 -40.9379 	 16.9168 	 -101.379 	 
H 	 -38.1191 	 16.0403 	 -103.055 	 
C 	 -40.7964 	 17.1026 	 -104.046 	 
H 	 -41.7197 	 16.54 	 -104.175 	 
H 	 -40.1894 	 16.48 	 -104.729 	 
C 	 -40.8065 	 18.6377 	 -104.52 	 
H 	 -40.0145 	 19.0952 	 -103.877 	 
H 	 -41.6984 	 19.16 	 -104.369 	 
C 	 -40.3413 	 18.7794 	 -105.957 	 
H 	 -39.3459 	 18.3626 	 -106.048 	 
H 	 -40.0407 	 19.8282 	 -106.2 	 
H 	 -41.0453 	 18.3549 	 -106.626 	 
H 	 -45.8786 	 17.8295 	 -101.087 	 
H 	 -37.652 	 15.7776 	 -100.706 	 
