34

S 	 -103.353 	 62.5224 	 -4.55896 	 
C 	 -104.778 	 63.1469 	 -5.36082 	 
C 	 -104.46 	 63.9375 	 -6.42769 	 
C 	 -103.08 	 63.8242 	 -6.76228 	 
C 	 -102.361 	 63.2168 	 -5.75908 	 
H 	 -102.567 	 64.3117 	 -7.61374 	 
C 	 -105.401 	 64.7814 	 -7.21914 	 
H 	 -106.425 	 64.5464 	 -6.90361 	 
H 	 -105.245 	 64.4913 	 -8.26717 	 
C 	 -105.159 	 66.3111 	 -7.0224 	 
H 	 -105.433 	 66.6122 	 -6.09052 	 
H 	 -104.096 	 66.4798 	 -7.11823 	 
C 	 -105.979 	 67.1036 	 -8.08036 	 
H 	 -105.547 	 66.9657 	 -9.05884 	 
H 	 -106.927 	 66.6533 	 -8.23353 	 
H 	 -106.016 	 68.1968 	 -7.92338 	 
S 	 -100.378 	 61.5019 	 -5.25013 	 
C 	 -98.7211 	 61.9791 	 -5.32433 	 
C 	 -98.6347 	 63.2282 	 -5.88569 	 
C 	 -99.8691 	 63.8867 	 -6.19877 	 
C 	 -100.905 	 63.1048 	 -5.78835 	 
H 	 -97.6898 	 63.6929 	 -6.00794 	 
C 	 -99.942 	 65.3404 	 -6.68804 	 
H 	 -100.77 	 65.43 	 -7.37447 	 
H 	 -99.113 	 65.3876 	 -7.48751 	 
C 	 -99.8547 	 66.5291 	 -5.72977 	 
H 	 -99.7059 	 67.4046 	 -6.2973 	 
H 	 -98.943 	 66.4658 	 -5.10484 	 
C 	 -101.159 	 66.6831 	 -4.91792 	 
H 	 -101.42 	 65.7529 	 -4.41567 	 
H 	 -102.033 	 66.9695 	 -5.52544 	 
H 	 -101.027 	 67.3455 	 -4.09991 	 
H 	 -105.775 	 63.0425 	 -4.86997 	 
H 	 -97.8405 	 61.3491 	 -5.2837 	 
