34

S 	 -126.551 	 61.9644 	 -58.3581 	 
C 	 -126.63 	 62.3898 	 -60.0309 	 
C 	 -127.768 	 61.9253 	 -60.6368 	 
C 	 -128.659 	 61.362 	 -59.7029 	 
C 	 -128.187 	 61.31 	 -58.4427 	 
H 	 -129.604 	 60.9375 	 -60.0607 	 
C 	 -128.118 	 62.1122 	 -62.1213 	 
H 	 -128.805 	 61.3569 	 -62.5894 	 
H 	 -127.115 	 62.0983 	 -62.6296 	 
C 	 -128.749 	 63.4954 	 -62.362 	 
H 	 -129.788 	 63.5471 	 -61.9581 	 
H 	 -128.167 	 64.2013 	 -61.8738 	 
C 	 -128.671 	 63.8186 	 -63.8158 	 
H 	 -127.629 	 63.8434 	 -64.1418 	 
H 	 -129.209 	 62.959 	 -64.379 	 
H 	 -129.185 	 64.7952 	 -63.9827 	 
S 	 -130.204 	 61.1991 	 -56.6246 	 
C 	 -130.396 	 59.753 	 -55.6761 	 
C 	 -129.382 	 58.844 	 -55.9914 	 
C 	 -128.45 	 59.3129 	 -56.9376 	 
C 	 -128.79 	 60.576 	 -57.3836 	 
H 	 -129.255 	 57.832 	 -55.5631 	 
C 	 -127.178 	 58.5942 	 -57.3592 	 
H 	 -126.829 	 59.1163 	 -58.2398 	 
H 	 -127.486 	 57.5301 	 -57.5306 	 
C 	 -125.953 	 58.686 	 -56.4088 	 
H 	 -125.988 	 58.0301 	 -55.5539 	 
H 	 -125.839 	 59.6844 	 -56.0082 	 
C 	 -124.593 	 58.3204 	 -57.0703 	 
H 	 -123.803 	 58.4906 	 -56.3141 	 
H 	 -124.319 	 59.0342 	 -57.8827 	 
H 	 -124.587 	 57.2871 	 -57.4484 	 
H 	 -125.733 	 62.7687 	 -60.5551 	 
H 	 -131.124 	 59.4966 	 -54.8928 	 
