34

S 	 20.6752 	 1.48576 	 -109.382 	 
C 	 20.3063 	 0.519977 	 -107.945 	 
C 	 19.0016 	 0.236031 	 -107.784 	 
C 	 18.2466 	 0.879678 	 -108.835 	 
C 	 19.0067 	 1.48661 	 -109.853 	 
H 	 17.1962 	 0.87952 	 -108.94 	 
C 	 18.4554 	 -0.390294 	 -106.534 	 
H 	 17.8516 	 0.443665 	 -106.18 	 
H 	 19.2692 	 -0.639901 	 -105.805 	 
C 	 17.6163 	 -1.72987 	 -106.774 	 
H 	 17.3876 	 -2.29231 	 -105.814 	 
H 	 16.6493 	 -1.53051 	 -107.163 	 
C 	 18.397 	 -2.70426 	 -107.691 	 
H 	 18.6486 	 -2.35006 	 -108.644 	 
H 	 19.3033 	 -2.95587 	 -107.165 	 
H 	 17.7383 	 -3.52616 	 -107.985 	 
S 	 17.7967 	 3.79086 	 -110.707 	 
C 	 17.7911 	 4.12441 	 -112.376 	 
C 	 18.5246 	 3.20072 	 -113.125 	 
C 	 18.8864 	 2.12188 	 -112.346 	 
C 	 18.5489 	 2.25576 	 -111.009 	 
H 	 18.7145 	 3.37959 	 -114.15 	 
C 	 19.7547 	 1.0315 	 -113.018 	 
H 	 19.2211 	 0.69129 	 -113.939 	 
H 	 19.6936 	 0.141931 	 -112.38 	 
C 	 21.2192 	 1.38595 	 -113.383 	 
H 	 21.8712 	 1.5337 	 -112.567 	 
H 	 21.2024 	 2.35087 	 -113.876 	 
C 	 21.9604 	 0.282371 	 -114.198 	 
H 	 22.9832 	 0.513397 	 -114.33 	 
H 	 21.5069 	 0.164106 	 -115.212 	 
H 	 21.9972 	 -0.653653 	 -113.716 	 
H 	 21.1168 	 0.208838 	 -107.314 	 
H 	 17.5114 	 5.11767 	 -112.722 	 
