34

S 	 -64.2969 	 7.63688 	 -78.1286 	 
C 	 -64.3977 	 6.31864 	 -79.1979 	 
C 	 -65.6706 	 5.73972 	 -79.1494 	 
C 	 -66.4935 	 6.36787 	 -78.1743 	 
C 	 -65.8868 	 7.36398 	 -77.5137 	 
H 	 -67.5271 	 6.06769 	 -77.9633 	 
C 	 -66.1676 	 4.59342 	 -79.9701 	 
H 	 -66.4138 	 3.75529 	 -79.3193 	 
H 	 -65.2669 	 4.32216 	 -80.5287 	 
C 	 -67.1781 	 4.92295 	 -81.0108 	 
H 	 -68.1334 	 5.07769 	 -80.4364 	 
H 	 -66.8726 	 5.87287 	 -81.4346 	 
C 	 -67.3454 	 3.79356 	 -82.0815 	 
H 	 -67.5436 	 2.82325 	 -81.6403 	 
H 	 -68.2402 	 3.92247 	 -82.727 	 
H 	 -66.4954 	 3.72122 	 -82.7046 	 
S 	 -68.0012 	 9.2301 	 -77.0338 	 
C 	 -68.271 	 9.75506 	 -75.3971 	 
C 	 -67.2012 	 9.42749 	 -74.6043 	 
C 	 -66.1714 	 8.68207 	 -75.2703 	 
C 	 -66.4821 	 8.33535 	 -76.595 	 
H 	 -67.1594 	 9.70284 	 -73.584 	 
C 	 -64.9439 	 8.17419 	 -74.5612 	 
H 	 -64.3113 	 7.75262 	 -75.3206 	 
H 	 -65.2386 	 7.35748 	 -73.9815 	 
C 	 -64.0855 	 9.19216 	 -73.7916 	 
H 	 -64.5818 	 9.73658 	 -72.9764 	 
H 	 -63.7272 	 9.96132 	 -74.4482 	 
C 	 -62.9367 	 8.51167 	 -73.0058 	 
H 	 -62.4209 	 9.24045 	 -72.3445 	 
H 	 -62.2408 	 7.99806 	 -73.6795 	 
H 	 -63.4657 	 7.79976 	 -72.3746 	 
H 	 -63.6986 	 5.97946 	 -79.8683 	 
H 	 -69.1063 	 10.3488 	 -74.9734 	 
