34

S 	 -63.108 	 13.1572 	 -93.6692 	 
C 	 -63.5125 	 14.4225 	 -94.8365 	 
C 	 -62.6026 	 15.4631 	 -94.8407 	 
C 	 -61.6865 	 15.3257 	 -93.766 	 
C 	 -61.85 	 14.1416 	 -93.0413 	 
H 	 -61.0203 	 16.0879 	 -93.5521 	 
C 	 -62.5497 	 16.658 	 -95.8347 	 
H 	 -61.9814 	 17.5339 	 -95.4963 	 
H 	 -63.639 	 16.9268 	 -95.9107 	 
C 	 -62.1419 	 16.2953 	 -97.2731 	 
H 	 -62.825 	 15.5858 	 -97.7814 	 
H 	 -62.0639 	 17.1305 	 -97.903 	 
C 	 -60.7189 	 15.6795 	 -97.2721 	 
H 	 -60.3499 	 15.7993 	 -98.2521 	 
H 	 -59.9862 	 16.2396 	 -96.6616 	 
H 	 -60.6498 	 14.6218 	 -96.9009 	 
S 	 -61.731 	 12.6418 	 -90.6603 	 
C 	 -60.3335 	 12.8454 	 -89.6033 	 
C 	 -59.4322 	 13.7333 	 -90.1548 	 
C 	 -59.7345 	 14.1551 	 -91.5056 	 
C 	 -61.0215 	 13.6968 	 -91.8978 	 
H 	 -58.5941 	 13.9102 	 -89.5216 	 
C 	 -58.8407 	 15.1791 	 -92.258 	 
H 	 -58.9964 	 15.1275 	 -93.3609 	 
H 	 -57.7762 	 14.9766 	 -92.3806 	 
C 	 -58.9323 	 16.6127 	 -91.7293 	 
H 	 -58.6572 	 16.6136 	 -90.6718 	 
H 	 -59.9814 	 16.8374 	 -91.6744 	 
C 	 -58.1718 	 17.6953 	 -92.5626 	 
H 	 -58.418 	 17.5696 	 -93.5799 	 
H 	 -57.0735 	 17.6998 	 -92.3407 	 
H 	 -58.4462 	 18.7788 	 -92.2749 	 
H 	 -64.3085 	 14.2587 	 -95.4496 	 
H 	 -60.2429 	 12.6289 	 -88.5563 	 
