34

S 	 -138.623 	 67.9653 	 -63.5172 	 
C 	 -139.391 	 69.2282 	 -64.3893 	 
C 	 -139.088 	 70.4716 	 -63.8265 	 
C 	 -138.579 	 70.3164 	 -62.5022 	 
C 	 -138.351 	 69.0086 	 -62.0779 	 
H 	 -138.323 	 71.1577 	 -61.8601 	 
C 	 -139.154 	 71.7284 	 -64.6437 	 
H 	 -138.652 	 71.4946 	 -65.5984 	 
H 	 -138.414 	 72.5021 	 -64.253 	 
C 	 -140.574 	 72.3043 	 -64.8019 	 
H 	 -140.918 	 72.6252 	 -63.7963 	 
H 	 -140.518 	 73.2958 	 -65.2935 	 
C 	 -141.593 	 71.3848 	 -65.567 	 
H 	 -142.079 	 70.6106 	 -64.989 	 
H 	 -142.464 	 72.004 	 -65.9099 	 
H 	 -141.087 	 70.9172 	 -66.401 	 
S 	 -138.57 	 67.0043 	 -60.2082 	 
C 	 -137.544 	 67.0431 	 -58.7846 	 
C 	 -136.769 	 68.2042 	 -58.7428 	 
C 	 -136.99 	 69.0201 	 -59.8869 	 
C 	 -137.923 	 68.5138 	 -60.7897 	 
H 	 -136.076 	 68.3622 	 -57.9455 	 
C 	 -136.226 	 70.3431 	 -59.9803 	 
H 	 -135.815 	 70.4314 	 -58.9913 	 
H 	 -136.957 	 71.1638 	 -60.0023 	 
C 	 -135.185 	 70.5707 	 -61.0605 	 
H 	 -134.844 	 71.5987 	 -60.9974 	 
H 	 -135.616 	 70.219 	 -61.9652 	 
C 	 -133.95 	 69.7393 	 -60.7731 	 
H 	 -134.375 	 68.7056 	 -60.8151 	 
H 	 -133.549 	 69.8475 	 -59.7797 	 
H 	 -133.125 	 69.8117 	 -61.4087 	 
H 	 -139.663 	 69.0794 	 -65.3986 	 
H 	 -137.535 	 66.2778 	 -58.009 	 
