34

S 	 -58.9189 	 16.6246 	 -100.096 	 
C 	 -57.2897 	 17.14 	 -100.213 	 
C 	 -57.1405 	 18.3571 	 -99.5511 	 
C 	 -58.2879 	 18.7029 	 -98.7806 	 
C 	 -59.335 	 17.7705 	 -98.9033 	 
H 	 -58.3691 	 19.6721 	 -98.2023 	 
C 	 -55.9026 	 19.2283 	 -99.4999 	 
H 	 -55.1526 	 18.7094 	 -100.069 	 
H 	 -55.597 	 19.2574 	 -98.4517 	 
C 	 -56.0047 	 20.7268 	 -99.9138 	 
H 	 -56.4525 	 20.853 	 -100.91 	 
H 	 -56.6907 	 21.2895 	 -99.3094 	 
C 	 -54.7129 	 21.4654 	 -99.9323 	 
H 	 -54.9451 	 22.4863 	 -100.238 	 
H 	 -54.2327 	 21.6377 	 -99.002 	 
H 	 -53.8663 	 21.1021 	 -100.51 	 
S 	 -62.2134 	 17.5609 	 -99.1004 	 
C 	 -63.2072 	 17.8335 	 -97.6788 	 
C 	 -62.3745 	 17.9222 	 -96.5742 	 
C 	 -60.9855 	 18.0076 	 -96.9201 	 
C 	 -60.6582 	 17.8504 	 -98.259 	 
H 	 -62.8104 	 18.0948 	 -95.5654 	 
C 	 -60.0406 	 18.4022 	 -95.8252 	 
H 	 -60.2445 	 19.4415 	 -95.4686 	 
H 	 -59.0316 	 18.4295 	 -96.208 	 
C 	 -59.9846 	 17.2753 	 -94.6734 	 
H 	 -59.7161 	 16.2456 	 -95.0678 	 
H 	 -61.0464 	 17.2495 	 -94.3342 	 
C 	 -59.0129 	 17.6838 	 -93.6066 	 
H 	 -58.8106 	 16.9738 	 -92.7898 	 
H 	 -59.4893 	 18.4973 	 -93.1424 	 
H 	 -58.0394 	 18.0023 	 -93.9459 	 
H 	 -56.4754 	 16.6293 	 -100.756 	 
H 	 -64.3243 	 17.924 	 -97.6845 	 
