34

S 	 -70.1541 	 13.9009 	 -77.8772 	 
C 	 -68.4987 	 13.9412 	 -77.9419 	 
C 	 -67.9016 	 13.3888 	 -76.8025 	 
C 	 -68.8867 	 13.0107 	 -75.8518 	 
C 	 -70.1955 	 13.1834 	 -76.3178 	 
H 	 -68.7567 	 12.6573 	 -74.806 	 
C 	 -66.3658 	 13.2708 	 -76.5507 	 
H 	 -66.2629 	 12.172 	 -76.3137 	 
H 	 -66.1007 	 13.7703 	 -75.5599 	 
C 	 -65.4336 	 13.4973 	 -77.735 	 
H 	 -64.4613 	 12.9997 	 -77.5032 	 
H 	 -65.8671 	 13.0396 	 -78.6272 	 
C 	 -65.047 	 14.9334 	 -77.9023 	 
H 	 -64.6327 	 15.209 	 -76.8947 	 
H 	 -64.1821 	 14.9745 	 -78.5446 	 
H 	 -65.8292 	 15.6023 	 -78.2531 	 
S 	 -72.5564 	 11.8069 	 -76.4866 	 
C 	 -73.6135 	 11.7632 	 -75.1634 	 
C 	 -73.0392 	 12.3161 	 -74.0372 	 
C 	 -71.8049 	 12.9762 	 -74.2902 	 
C 	 -71.4706 	 12.8375 	 -75.6557 	 
H 	 -73.5016 	 12.3028 	 -73.0601 	 
C 	 -71.0571 	 13.8666 	 -73.3303 	 
H 	 -70.0525 	 13.9462 	 -73.6784 	 
H 	 -71.1627 	 13.1343 	 -72.4881 	 
C 	 -71.6955 	 15.2309 	 -72.8501 	 
H 	 -72.7857 	 15.1994 	 -72.6382 	 
H 	 -71.6533 	 15.8524 	 -73.7669 	 
C 	 -70.9061 	 16.0152 	 -71.8173 	 
H 	 -70.6211 	 15.2922 	 -71.0513 	 
H 	 -71.5216 	 16.8069 	 -71.3757 	 
H 	 -69.9547 	 16.4315 	 -72.2231 	 
H 	 -68.13 	 14.3906 	 -78.8644 	 
H 	 -74.5928 	 11.2719 	 -75.1661 	 
