34

S 	 -110.555 	 56.6054 	 -89.2437 	 
C 	 -110.551 	 57.8508 	 -88.0983 	 
C 	 -109.75 	 57.4989 	 -87.021 	 
C 	 -109.081 	 56.257 	 -87.1292 	 
C 	 -109.392 	 55.6576 	 -88.3237 	 
H 	 -108.36 	 55.7838 	 -86.4975 	 
C 	 -109.594 	 58.3545 	 -85.7928 	 
H 	 -109.618 	 57.7495 	 -84.8916 	 
H 	 -110.398 	 59.0468 	 -85.7481 	 
C 	 -108.327 	 59.2127 	 -85.6445 	 
H 	 -108.516 	 59.8558 	 -84.8012 	 
H 	 -107.467 	 58.5488 	 -85.5997 	 
C 	 -108.027 	 60.135 	 -86.8603 	 
H 	 -108.893 	 60.7602 	 -86.9406 	 
H 	 -107.207 	 60.829 	 -86.6686 	 
H 	 -107.826 	 59.612 	 -87.7738 	 
S 	 -110.064 	 53.1281 	 -89.2325 	 
C 	 -108.747 	 52.104 	 -89.9396 	 
C 	 -107.525 	 52.7138 	 -89.7978 	 
C 	 -107.637 	 53.9929 	 -89.1823 	 
C 	 -108.933 	 54.3391 	 -88.9089 	 
H 	 -106.679 	 52.2947 	 -90.0924 	 
C 	 -106.455 	 54.858 	 -88.8663 	 
H 	 -105.984 	 54.4119 	 -87.9989 	 
H 	 -106.758 	 55.8688 	 -88.6821 	 
C 	 -105.394 	 55.0811 	 -89.9791 	 
H 	 -104.81 	 54.1999 	 -90.2514 	 
H 	 -104.661 	 55.7464 	 -89.566 	 
C 	 -105.995 	 55.7882 	 -91.2363 	 
H 	 -105.305 	 56.1412 	 -91.8964 	 
H 	 -106.533 	 56.7117 	 -90.9822 	 
H 	 -106.654 	 55.0457 	 -91.7103 	 
H 	 -111.282 	 58.7362 	 -88.1658 	 
H 	 -108.872 	 51.1283 	 -90.3302 	 
