34

S 	 41.2612 	 -9.78626 	 -106.122 	 
C 	 42.0186 	 -8.24942 	 -106.228 	 
C 	 41.7683 	 -7.63614 	 -107.436 	 
C 	 41.0203 	 -8.5103 	 -108.327 	 
C 	 40.5998 	 -9.69067 	 -107.733 	 
H 	 40.6386 	 -8.27652 	 -109.3 	 
C 	 42.122 	 -6.23387 	 -107.761 	 
H 	 42.7052 	 -5.96557 	 -106.97 	 
H 	 41.3685 	 -5.58939 	 -107.693 	 
C 	 43.0352 	 -6.03508 	 -109.016 	 
H 	 43.8736 	 -6.75314 	 -108.9 	 
H 	 42.5428 	 -6.37202 	 -110.024 	 
C 	 43.7243 	 -4.67507 	 -109.123 	 
H 	 44.0384 	 -4.31793 	 -108.083 	 
H 	 44.5111 	 -4.53313 	 -109.923 	 
H 	 42.9763 	 -3.9248 	 -109.355 	 
S 	 40.2605 	 -12.3875 	 -107.831 	 
C 	 39.0462 	 -13.0496 	 -108.853 	 
C 	 38.2116 	 -12.0781 	 -109.367 	 
C 	 38.6336 	 -10.7459 	 -109.116 	 
C 	 39.7697 	 -10.7336 	 -108.344 	 
H 	 37.3375 	 -12.3663 	 -109.906 	 
C 	 37.7964 	 -9.65297 	 -109.67 	 
H 	 37.2482 	 -10.0555 	 -110.598 	 
H 	 38.4624 	 -8.88343 	 -110.048 	 
C 	 36.67 	 -9.07469 	 -108.741 	 
H 	 36.3953 	 -8.05966 	 -109.141 	 
H 	 37.034 	 -8.68363 	 -107.826 	 
C 	 35.4441 	 -9.94521 	 -108.576 	 
H 	 35.17 	 -10.3966 	 -109.5 	 
H 	 34.5597 	 -9.40967 	 -108.205 	 
H 	 35.5977 	 -10.5654 	 -107.759 	 
H 	 42.5597 	 -7.69617 	 -105.499 	 
H 	 38.8198 	 -14.0632 	 -108.986 	 
