34

S 	 -47.8247 	 4.47025 	 -17.6724 	 
C 	 -48.4672 	 3.08961 	 -18.6009 	 
C 	 -49.6049 	 2.62168 	 -18.0379 	 
C 	 -50.0459 	 3.3837 	 -16.8675 	 
C 	 -49.1987 	 4.35587 	 -16.4779 	 
H 	 -51.0677 	 3.35332 	 -16.4128 	 
C 	 -50.4683 	 1.58544 	 -18.7215 	 
H 	 -49.688 	 1.07496 	 -19.3876 	 
H 	 -51.1979 	 2.04406 	 -19.2866 	 
C 	 -51.0985 	 0.540323 	 -17.7392 	 
H 	 -50.3376 	 0.0273103 	 -17.3157 	 
H 	 -51.7139 	 1.00263 	 -16.9863 	 
C 	 -52.0016 	 -0.432649 	 -18.4854 	 
H 	 -52.7702 	 0.137226 	 -18.9768 	 
H 	 -51.3504 	 -1.13337 	 -19.0703 	 
H 	 -52.5091 	 -1.05543 	 -17.7201 	 
S 	 -49.5436 	 6.99322 	 -15.7215 	 
C 	 -49.7221 	 7.3952 	 -14.0393 	 
C 	 -49.8951 	 6.30038 	 -13.3031 	 
C 	 -49.7674 	 5.07088 	 -14.0326 	 
C 	 -49.4202 	 5.29069 	 -15.3779 	 
H 	 -50.1373 	 6.41562 	 -12.1873 	 
C 	 -49.9089 	 3.69872 	 -13.354 	 
H 	 -50.7019 	 3.18623 	 -13.9172 	 
H 	 -50.2179 	 3.82943 	 -12.3129 	 
C 	 -48.6151 	 2.81855 	 -13.3156 	 
H 	 -48.2785 	 2.62954 	 -14.3305 	 
H 	 -48.7494 	 1.82203 	 -12.8404 	 
C 	 -47.4643 	 3.37393 	 -12.4113 	 
H 	 -47.7052 	 3.25797 	 -11.4035 	 
H 	 -47.2732 	 4.45468 	 -12.6638 	 
H 	 -46.4637 	 2.88404 	 -12.5241 	 
H 	 -48.1682 	 2.76509 	 -19.5926 	 
H 	 -49.7847 	 8.4813 	 -13.6275 	 
