34

S 	 -66.7964 	 20.3371 	 -115.774 	 
C 	 -67.2785 	 20.095 	 -117.416 	 
C 	 -67.7302 	 18.7916 	 -117.667 	 
C 	 -67.7632 	 18.0012 	 -116.454 	 
C 	 -67.3713 	 18.7041 	 -115.373 	 
H 	 -67.9896 	 16.9225 	 -116.429 	 
C 	 -68.0711 	 18.3893 	 -119.056 	 
H 	 -67.9937 	 17.3085 	 -119.037 	 
H 	 -67.4282 	 19.0006 	 -119.693 	 
C 	 -69.5635 	 18.8224 	 -119.438 	 
H 	 -70.305 	 18.4107 	 -118.718 	 
H 	 -69.554 	 19.9009 	 -119.429 	 
C 	 -69.8725 	 18.4256 	 -120.868 	 
H 	 -69.5101 	 17.3827 	 -121.133 	 
H 	 -70.9648 	 18.4516 	 -121.117 	 
H 	 -69.3771 	 19.137 	 -121.538 	 
S 	 -68.0142 	 16.6899 	 -113.576 	 
C 	 -66.89 	 16.4318 	 -112.21 	 
C 	 -65.9016 	 17.332 	 -112.245 	 
C 	 -65.8963 	 18.2669 	 -113.327 	 
C 	 -66.9963 	 18.0717 	 -114.143 	 
H 	 -65.1198 	 17.2229 	 -111.501 	 
C 	 -64.7007 	 19.0866 	 -113.564 	 
H 	 -64.0571 	 19.1608 	 -112.641 	 
H 	 -65.018 	 20.1427 	 -113.714 	 
C 	 -63.8167 	 18.4904 	 -114.566 	 
H 	 -64.1989 	 18.7476 	 -115.569 	 
H 	 -63.8113 	 17.4429 	 -114.56 	 
C 	 -62.2782 	 18.8072 	 -114.643 	 
H 	 -61.6578 	 18.4031 	 -113.836 	 
H 	 -62.134 	 19.907 	 -114.501 	 
H 	 -61.9406 	 18.561 	 -115.637 	 
H 	 -67.1467 	 20.9519 	 -118.153 	 
H 	 -67.0218 	 15.6443 	 -111.477 	 
