34

S 	 -84.0066 	 -46.0682 	 -83.2243 	 
C 	 -85.4764 	 -45.7848 	 -82.319 	 
C 	 -86.1163 	 -46.9525 	 -81.9738 	 
C 	 -85.3009 	 -48.057 	 -82.199 	 
C 	 -84.1025 	 -47.7578 	 -82.8618 	 
H 	 -85.6142 	 -49.0991 	 -81.8456 	 
C 	 -87.5437 	 -47.0467 	 -81.3879 	 
H 	 -88.0064 	 -48.0373 	 -81.7624 	 
H 	 -88.2478 	 -46.2956 	 -81.8554 	 
C 	 -87.4764 	 -47.0845 	 -79.839 	 
H 	 -87.2954 	 -48.1124 	 -79.5712 	 
H 	 -86.6932 	 -46.4123 	 -79.4181 	 
C 	 -88.8586 	 -46.6374 	 -79.2577 	 
H 	 -88.5355 	 -46.8519 	 -78.2171 	 
H 	 -89.1884 	 -45.6052 	 -79.4573 	 
H 	 -89.6143 	 -47.3455 	 -79.5041 	 
S 	 -81.3864 	 -48.055 	 -82.5667 	 
C 	 -80.6416 	 -49.6905 	 -82.7581 	 
C 	 -81.663 	 -50.6378 	 -83.0055 	 
C 	 -82.9492 	 -50.0694 	 -83.082 	 
C 	 -82.989 	 -48.6922 	 -82.961 	 
H 	 -81.4369 	 -51.692 	 -83.2458 	 
C 	 -84.1315 	 -51.0541 	 -83.3225 	 
H 	 -83.8908 	 -51.8116 	 -84.0859 	 
H 	 -84.9639 	 -50.4966 	 -83.8419 	 
C 	 -84.7276 	 -51.805 	 -82.142 	 
H 	 -84.6783 	 -51.0763 	 -81.2979 	 
H 	 -84.0097 	 -52.5762 	 -81.8034 	 
C 	 -86.1568 	 -52.2962 	 -82.3679 	 
H 	 -86.9731 	 -51.6228 	 -82.5388 	 
H 	 -86.5151 	 -52.9917 	 -81.5773 	 
H 	 -86.0558 	 -52.8969 	 -83.2587 	 
H 	 -86.0741 	 -44.7869 	 -82.349 	 
H 	 -79.5939 	 -49.9077 	 -82.7066 	 
