34

S 	 -109.189 	 29.7451 	 -17.1314 	 
C 	 -109.022 	 28.7147 	 -18.4645 	 
C 	 -108.101 	 29.248 	 -19.4209 	 
C 	 -107.488 	 30.5411 	 -18.9585 	 
C 	 -108.018 	 30.9343 	 -17.7417 	 
H 	 -106.815 	 31.3501 	 -19.3653 	 
C 	 -107.849 	 28.7841 	 -20.8425 	 
H 	 -107.436 	 27.7667 	 -20.7939 	 
H 	 -107.066 	 29.4942 	 -21.2504 	 
C 	 -109.07 	 28.8814 	 -21.7624 	 
H 	 -109.922 	 28.4544 	 -21.2158 	 
H 	 -109.325 	 29.9563 	 -21.7652 	 
C 	 -108.706 	 28.4774 	 -23.1686 	 
H 	 -108.429 	 27.4355 	 -23.2731 	 
H 	 -109.601 	 28.4699 	 -23.7787 	 
H 	 -107.933 	 28.9853 	 -23.7098 	 
S 	 -106.161 	 32.6182 	 -16.6308 	 
C 	 -106.674 	 33.9786 	 -15.6247 	 
C 	 -108.029 	 34.1057 	 -15.7355 	 
C 	 -108.74 	 33.0814 	 -16.4529 	 
C 	 -107.781 	 32.158 	 -16.9716 	 
H 	 -108.609 	 34.8361 	 -15.1397 	 
C 	 -110.241 	 33.0198 	 -16.686 	 
H 	 -110.806 	 33.6255 	 -15.9455 	 
H 	 -110.687 	 31.9932 	 -16.6157 	 
C 	 -110.757 	 33.6006 	 -17.9978 	 
H 	 -110.521 	 32.8571 	 -18.8044 	 
H 	 -110.266 	 34.5532 	 -18.3109 	 
C 	 -112.295 	 34.0239 	 -18.1609 	 
H 	 -112.973 	 33.1362 	 -17.9759 	 
H 	 -112.525 	 34.2909 	 -19.1648 	 
H 	 -112.697 	 34.7383 	 -17.47 	 
H 	 -109.653 	 27.8149 	 -18.6044 	 
H 	 -106.073 	 34.6724 	 -15.1046 	 
