34

S 	 -99.5304 	 -2.44419 	 -106.959 	 
C 	 -99.5415 	 -2.61973 	 -108.767 	 
C 	 -100.661 	 -3.27412 	 -109.212 	 
C 	 -101.565 	 -3.47877 	 -108.102 	 
C 	 -101.099 	 -2.9895 	 -106.914 	 
H 	 -102.54 	 -3.82364 	 -108.08 	 
C 	 -101.138 	 -3.57663 	 -110.593 	 
H 	 -100.399 	 -3.33001 	 -111.336 	 
H 	 -101.867 	 -2.85007 	 -110.834 	 
C 	 -101.961 	 -4.87247 	 -110.879 	 
H 	 -102.973 	 -4.68902 	 -110.492 	 
H 	 -102.067 	 -4.97211 	 -111.968 	 
C 	 -101.369 	 -6.15215 	 -110.24 	 
H 	 -100.351 	 -6.26111 	 -110.624 	 
H 	 -101.463 	 -6.14383 	 -109.134 	 
H 	 -101.926 	 -7.06062 	 -110.589 	 
S 	 -102.096 	 -1.09913 	 -105.139 	 
C 	 -102.771 	 -1.68148 	 -103.607 	 
C 	 -103.034 	 -2.99533 	 -103.709 	 
C 	 -102.48 	 -3.66382 	 -104.848 	 
C 	 -101.906 	 -2.76302 	 -105.722 	 
H 	 -103.546 	 -3.40294 	 -102.866 	 
C 	 -102.519 	 -5.18045 	 -105.125 	 
H 	 -103.108 	 -5.49121 	 -105.932 	 
H 	 -102.933 	 -5.59717 	 -104.19 	 
C 	 -101.155 	 -5.82451 	 -105.378 	 
H 	 -100.539 	 -5.38434 	 -104.573 	 
H 	 -100.627 	 -5.56159 	 -106.287 	 
C 	 -101.133 	 -7.4002 	 -105.201 	 
H 	 -101.508 	 -7.60761 	 -104.197 	 
H 	 -100.012 	 -7.47476 	 -105.265 	 
H 	 -101.531 	 -8.04281 	 -105.992 	 
H 	 -98.6594 	 -2.46324 	 -109.367 	 
H 	 -103.24 	 -1.13843 	 -102.838 	 
