34

S 	 -46.5405 	 -48.9426 	 -75.1868 	 
C 	 -48.0026 	 -48.7001 	 -74.326 	 
C 	 -49.13 	 -48.7902 	 -75.1655 	 
C 	 -48.7837 	 -49.1982 	 -76.4785 	 
C 	 -47.3986 	 -49.2091 	 -76.7075 	 
H 	 -49.5317 	 -49.5707 	 -77.232 	 
C 	 -50.5693 	 -48.494 	 -74.7704 	 
H 	 -51.093 	 -47.8546 	 -75.4908 	 
H 	 -50.6592 	 -47.8524 	 -73.9294 	 
C 	 -51.5317 	 -49.5474 	 -74.5183 	 
H 	 -51.903 	 -49.97 	 -75.43 	 
H 	 -51.088 	 -50.3577 	 -73.9621 	 
C 	 -52.7553 	 -49.2239 	 -73.6494 	 
H 	 -52.5079 	 -49.3119 	 -72.6263 	 
H 	 -53.0911 	 -48.2144 	 -73.8294 	 
H 	 -53.4559 	 -49.913 	 -73.9889 	 
S 	 -45.0909 	 -50.1753 	 -77.8885 	 
C 	 -45.032 	 -50.4662 	 -79.6385 	 
C 	 -46.1773 	 -50.0479 	 -80.2757 	 
C 	 -47.1224 	 -49.4749 	 -79.3643 	 
C 	 -46.7373 	 -49.6114 	 -77.9639 	 
H 	 -46.1329 	 -49.9238 	 -81.3613 	 
C 	 -48.2663 	 -48.7463 	 -79.9046 	 
H 	 -47.9839 	 -48.1743 	 -80.7868 	 
H 	 -48.6034 	 -48.0018 	 -79.1284 	 
C 	 -49.5057 	 -49.6572 	 -80.1347 	 
H 	 -50.3355 	 -48.9829 	 -80.2464 	 
H 	 -49.6885 	 -50.3376 	 -79.4087 	 
C 	 -49.157 	 -50.564 	 -81.3485 	 
H 	 -48.5657 	 -51.5224 	 -81.1501 	 
H 	 -48.757 	 -50.0342 	 -82.2432 	 
H 	 -50.1996 	 -50.9749 	 -81.7111 	 
H 	 -48.2688 	 -48.3562 	 -73.3329 	 
H 	 -44.2018 	 -50.7522 	 -80.2199 	 
