34

S 	 -120.269 	 22.2722 	 -16.6207 	 
C 	 -120.43 	 22.0652 	 -18.3292 	 
C 	 -120.916 	 23.1519 	 -18.9946 	 
C 	 -121.164 	 24.2105 	 -18.0607 	 
C 	 -120.907 	 23.8939 	 -16.737 	 
H 	 -121.55 	 25.2175 	 -18.3007 	 
C 	 -121.327 	 23.2442 	 -20.4401 	 
H 	 -122.327 	 23.0292 	 -20.4222 	 
H 	 -120.915 	 22.5114 	 -21.0459 	 
C 	 -121.085 	 24.5529 	 -21.1787 	 
H 	 -121.437 	 24.362 	 -22.1913 	 
H 	 -121.563 	 25.4939 	 -20.8121 	 
C 	 -119.602 	 24.8466 	 -21.302 	 
H 	 -119.264 	 25.2066 	 -20.3629 	 
H 	 -118.963 	 23.9515 	 -21.4033 	 
H 	 -119.461 	 25.6556 	 -22.053 	 
S 	 -119.896 	 25.3815 	 -14.7866 	 
C 	 -120.874 	 26.6429 	 -13.9949 	 
C 	 -122.182 	 26.5239 	 -14.2721 	 
C 	 -122.432 	 25.4036 	 -15.1699 	 
C 	 -121.244 	 24.7941 	 -15.6488 	 
H 	 -122.92 	 27.1604 	 -13.8804 	 
C 	 -123.837 	 25.0973 	 -15.6921 	 
H 	 -123.546 	 24.538 	 -16.6161 	 
H 	 -124.231 	 26.1506 	 -15.8831 	 
C 	 -124.749 	 24.2535 	 -14.7777 	 
H 	 -125.686 	 24.0327 	 -15.3584 	 
H 	 -125.2 	 24.8618 	 -13.9976 	 
C 	 -124.125 	 22.967 	 -14.1721 	 
H 	 -123.18 	 23.1325 	 -13.6396 	 
H 	 -123.95 	 22.3325 	 -15.0136 	 
H 	 -124.798 	 22.4323 	 -13.5043 	 
H 	 -120.009 	 21.2624 	 -18.8856 	 
H 	 -120.476 	 27.3123 	 -13.2554 	 
