34

S 	 -134.679 	 13.6106 	 -15.3924 	 
C 	 -135.41 	 12.2588 	 -14.4978 	 
C 	 -136.022 	 11.3772 	 -15.3525 	 
C 	 -136.003 	 11.866 	 -16.731 	 
C 	 -135.344 	 13.0414 	 -16.9196 	 
H 	 -136.45 	 11.3505 	 -17.5531 	 
C 	 -136.6 	 10.0225 	 -14.915 	 
H 	 -135.788 	 9.3155 	 -14.6376 	 
H 	 -136.999 	 9.58054 	 -15.8388 	 
C 	 -137.686 	 10.0782 	 -13.7669 	 
H 	 -137.655 	 9.1832 	 -13.1603 	 
H 	 -137.372 	 10.9117 	 -13.1193 	 
C 	 -139.055 	 10.3854 	 -14.3518 	 
H 	 -139.706 	 11.0454 	 -13.7325 	 
H 	 -138.841 	 10.8295 	 -15.3176 	 
H 	 -139.515 	 9.44714 	 -14.6131 	 
S 	 -135.743 	 15.5943 	 -18.008 	 
C 	 -135.65 	 15.6898 	 -19.7207 	 
C 	 -135.08 	 14.592 	 -20.3582 	 
C 	 -134.788 	 13.5578 	 -19.3831 	 
C 	 -135.238 	 13.8876 	 -18.11 	 
H 	 -134.988 	 14.487 	 -21.3935 	 
C 	 -134.333 	 12.2025 	 -19.9179 	 
H 	 -133.618 	 11.6879 	 -19.2651 	 
H 	 -133.721 	 12.5122 	 -20.7146 	 
C 	 -135.465 	 11.3408 	 -20.4016 	 
H 	 -135.849 	 11.7707 	 -21.2668 	 
H 	 -136.271 	 11.2742 	 -19.663 	 
C 	 -134.983 	 9.9901 	 -20.9192 	 
H 	 -134.733 	 9.42181 	 -19.9986 	 
H 	 -134.016 	 10.2375 	 -21.4189 	 
H 	 -135.674 	 9.48668 	 -21.5474 	 
H 	 -135.133 	 11.9962 	 -13.5447 	 
H 	 -135.782 	 16.5687 	 -20.3443 	 
