34

S 	 -81.1273 	 -33.3605 	 -52.3854 	 
C 	 -79.48 	 -33.1679 	 -53.0512 	 
C 	 -79.3077 	 -31.9329 	 -53.6499 	 
C 	 -80.4084 	 -31.0882 	 -53.4236 	 
C 	 -81.4684 	 -31.6498 	 -52.6989 	 
H 	 -80.3476 	 -29.9789 	 -53.6839 	 
C 	 -78.0376 	 -31.47 	 -54.2801 	 
H 	 -77.3208 	 -31.1246 	 -53.5576 	 
H 	 -78.3575 	 -30.5627 	 -54.8067 	 
C 	 -77.3513 	 -32.472 	 -55.2014 	 
H 	 -76.3365 	 -32.1698 	 -55.375 	 
H 	 -77.2381 	 -33.4202 	 -54.778 	 
C 	 -77.8959 	 -32.5491 	 -56.6263 	 
H 	 -78.074 	 -31.5757 	 -57.1186 	 
H 	 -77.1701 	 -33.1327 	 -57.153 	 
H 	 -78.8539 	 -33.0262 	 -56.6406 	 
S 	 -83.8489 	 -30.6476 	 -53.5815 	 
C 	 -84.8071 	 -29.5222 	 -52.535 	 
C 	 -84.4185 	 -29.6827 	 -51.2269 	 
C 	 -83.2383 	 -30.5478 	 -51.1267 	 
C 	 -82.7115 	 -30.9616 	 -52.3322 	 
H 	 -84.912 	 -29.2165 	 -50.4515 	 
C 	 -82.5427 	 -30.6018 	 -49.8169 	 
H 	 -82.8653 	 -29.7295 	 -49.1706 	 
H 	 -81.5036 	 -30.3293 	 -49.9039 	 
C 	 -82.7603 	 -31.9452 	 -49.0188 	 
H 	 -82.6755 	 -32.7049 	 -49.7495 	 
H 	 -83.8087 	 -32.1166 	 -48.8319 	 
C 	 -81.7799 	 -32.0366 	 -47.8331 	 
H 	 -82.1601 	 -32.8429 	 -47.1378 	 
H 	 -81.8166 	 -31.1522 	 -47.2621 	 
H 	 -80.7827 	 -32.1862 	 -48.0613 	 
H 	 -78.6739 	 -33.8946 	 -53.1272 	 
H 	 -85.6628 	 -28.9487 	 -52.879 	 
