34

S 	 -102.473 	 -2.85822 	 -113.342 	 
C 	 -104.071 	 -3.19534 	 -113.962 	 
C 	 -104.901 	 -3.68614 	 -112.996 	 
C 	 -104.296 	 -3.64775 	 -111.722 	 
C 	 -102.993 	 -3.33035 	 -111.705 	 
H 	 -104.745 	 -3.97148 	 -110.8 	 
C 	 -106.362 	 -3.93515 	 -113.271 	 
H 	 -106.772 	 -3.17503 	 -114.021 	 
H 	 -106.927 	 -3.73405 	 -112.339 	 
C 	 -106.538 	 -5.39216 	 -113.618 	 
H 	 -105.991 	 -5.749 	 -114.551 	 
H 	 -106.021 	 -5.92321 	 -112.858 	 
C 	 -108.018 	 -5.68656 	 -113.793 	 
H 	 -108.227 	 -6.6777 	 -114.097 	 
H 	 -108.679 	 -5.39428 	 -112.989 	 
H 	 -108.489 	 -5.066 	 -114.639 	 
S 	 -100.357 	 -3.52872 	 -110.824 	 
C 	 -99.9044 	 -3.28722 	 -109.177 	 
C 	 -101.057 	 -3.02899 	 -108.423 	 
C 	 -102.295 	 -2.97841 	 -109.136 	 
C 	 -102.077 	 -3.24417 	 -110.535 	 
H 	 -100.914 	 -3.07022 	 -107.35 	 
C 	 -103.584 	 -2.89248 	 -108.366 	 
H 	 -103.894 	 -3.91467 	 -108.204 	 
H 	 -104.32 	 -2.44672 	 -109.069 	 
C 	 -103.604 	 -2.02392 	 -107.108 	 
H 	 -102.834 	 -2.44176 	 -106.377 	 
H 	 -104.615 	 -2.14331 	 -106.617 	 
C 	 -103.321 	 -0.497824 	 -107.21 	 
H 	 -103.59 	 0.00141453 	 -106.244 	 
H 	 -103.802 	 -0.112175 	 -108.098 	 
H 	 -102.249 	 -0.313372 	 -107.51 	 
H 	 -104.424 	 -3.17368 	 -115.034 	 
H 	 -98.9153 	 -3.45561 	 -108.816 	 
