34

S 	 -142.235 	 25.9658 	 -21.4213 	 
C 	 -143.804 	 25.3016 	 -21.5202 	 
C 	 -144.35 	 25.2616 	 -20.2636 	 
C 	 -143.539 	 25.8915 	 -19.2308 	 
C 	 -142.358 	 26.3835 	 -19.7275 	 
H 	 -143.733 	 26.1015 	 -18.1585 	 
C 	 -145.756 	 24.9203 	 -19.9247 	 
H 	 -145.659 	 23.9458 	 -19.3516 	 
H 	 -146.291 	 24.5205 	 -20.8021 	 
C 	 -146.659 	 25.8503 	 -19.0689 	 
H 	 -146.109 	 26.1499 	 -18.2087 	 
H 	 -146.819 	 26.7731 	 -19.7547 	 
C 	 -147.957 	 25.1759 	 -18.5784 	 
H 	 -148.354 	 25.6825 	 -17.7158 	 
H 	 -148.671 	 25.1414 	 -19.3691 	 
H 	 -147.777 	 24.1215 	 -18.156 	 
S 	 -140.123 	 27.8437 	 -20.2274 	 
C 	 -139.259 	 28.6025 	 -19.0186 	 
C 	 -139.851 	 28.4398 	 -17.7742 	 
C 	 -140.961 	 27.5726 	 -17.8019 	 
C 	 -141.191 	 27.058 	 -19.057 	 
H 	 -139.46 	 28.8853 	 -16.9002 	 
C 	 -141.879 	 27.4187 	 -16.6171 	 
H 	 -141.27 	 27.4688 	 -15.6982 	 
H 	 -142.281 	 26.4458 	 -16.6869 	 
C 	 -143.03 	 28.4858 	 -16.5308 	 
H 	 -143.51 	 28.6506 	 -17.5167 	 
H 	 -142.592 	 29.3852 	 -16.2688 	 
C 	 -144.073 	 28.2148 	 -15.5325 	 
H 	 -143.868 	 28.5291 	 -14.5289 	 
H 	 -144.438 	 27.1799 	 -15.4689 	 
H 	 -144.9 	 28.8175 	 -15.7833 	 
H 	 -144.223 	 24.911 	 -22.4334 	 
H 	 -138.36 	 29.1649 	 -19.1734 	 
