34

S 	 33.3688 	 -33.5855 	 -109.082 	 
C 	 32.5079 	 -33.5069 	 -107.504 	 
C 	 32.5261 	 -32.2437 	 -106.989 	 
C 	 33.3184 	 -31.382 	 -107.749 	 
C 	 33.8208 	 -31.9062 	 -108.923 	 
H 	 33.4004 	 -30.309 	 -107.479 	 
C 	 31.8347 	 -31.738 	 -105.713 	 
H 	 31.0803 	 -32.4477 	 -105.461 	 
H 	 31.3922 	 -30.8377 	 -105.978 	 
C 	 32.879 	 -31.5257 	 -104.571 	 
H 	 33.6375 	 -30.7566 	 -104.788 	 
H 	 32.2363 	 -31.1461 	 -103.786 	 
C 	 33.619 	 -32.8096 	 -104.127 	 
H 	 33.1192 	 -33.3776 	 -103.295 	 
H 	 33.6188 	 -33.5764 	 -104.967 	 
H 	 34.6531 	 -32.5935 	 -103.869 	 
S 	 34.3637 	 -31.6333 	 -111.612 	 
C 	 35.6751 	 -30.5956 	 -112.055 	 
C 	 36.3214 	 -30.1349 	 -110.974 	 
C 	 35.8505 	 -30.676 	 -109.721 	 
C 	 34.6262 	 -31.2567 	 -109.952 	 
H 	 37.1965 	 -29.5316 	 -111.179 	 
C 	 36.4986 	 -30.3426 	 -108.376 	 
H 	 37.5081 	 -30.6893 	 -108.46 	 
H 	 36.0338 	 -30.8679 	 -107.62 	 
C 	 36.4199 	 -28.8664 	 -107.855 	 
H 	 35.452 	 -28.6051 	 -107.448 	 
H 	 36.4733 	 -28.2316 	 -108.722 	 
C 	 37.4792 	 -28.7164 	 -106.842 	 
H 	 38.4844 	 -28.6599 	 -107.292 	 
H 	 37.5641 	 -29.6413 	 -106.197 	 
H 	 37.4173 	 -27.7796 	 -106.26 	 
H 	 32.1904 	 -34.3968 	 -107.014 	 
H 	 35.9739 	 -30.303 	 -113.062 	 
