34

S 	 -89.5663 	 -32.3648 	 -73.1841 	 
C 	 -89.8486 	 -32.7178 	 -74.8903 	 
C 	 -89.885 	 -31.5968 	 -75.6464 	 
C 	 -89.788 	 -30.3479 	 -74.8786 	 
C 	 -89.8549 	 -30.5532 	 -73.4759 	 
H 	 -89.7389 	 -29.2822 	 -75.2247 	 
C 	 -89.839 	 -31.4746 	 -77.1905 	 
H 	 -89.3017 	 -32.3767 	 -77.5839 	 
H 	 -89.317 	 -30.6028 	 -77.5856 	 
C 	 -91.2284 	 -31.3413 	 -77.7874 	 
H 	 -91.0395 	 -31.4797 	 -78.9008 	 
H 	 -91.8898 	 -32.1403 	 -77.5238 	 
C 	 -92.0052 	 -29.9673 	 -77.6422 	 
H 	 -93.0676 	 -30.0987 	 -77.9466 	 
H 	 -91.9651 	 -29.6722 	 -76.6572 	 
H 	 -91.5244 	 -29.2115 	 -78.2561 	 
S 	 -88.8427 	 -29.7003 	 -71.0509 	 
C 	 -89.4609 	 -28.175 	 -70.2969 	 
C 	 -90.5129 	 -27.6784 	 -71.0507 	 
C 	 -90.6604 	 -28.3918 	 -72.2923 	 
C 	 -89.9679 	 -29.6246 	 -72.4068 	 
H 	 -90.8226 	 -26.6503 	 -70.7481 	 
C 	 -91.5312 	 -27.8832 	 -73.4859 	 
H 	 -92.5705 	 -27.7924 	 -73.2869 	 
H 	 -91.526 	 -28.615 	 -74.2328 	 
C 	 -91.0219 	 -26.5737 	 -74.018 	 
H 	 -89.9097 	 -26.5692 	 -74.1836 	 
H 	 -91.1661 	 -25.7221 	 -73.3842 	 
C 	 -91.7984 	 -26.1926 	 -75.3188 	 
H 	 -91.8256 	 -27.0644 	 -75.9448 	 
H 	 -91.2583 	 -25.4964 	 -75.8816 	 
H 	 -92.8124 	 -25.7194 	 -75.1403 	 
H 	 -89.8493 	 -33.7149 	 -75.4104 	 
H 	 -89.3046 	 -27.9149 	 -69.3031 	 
