34

S 	 -90.4229 	 -34.1389 	 -66.0207 	 
C 	 -90.9085 	 -34.8169 	 -67.5811 	 
C 	 -90.7171 	 -36.194 	 -67.6018 	 
C 	 -90.336 	 -36.6649 	 -66.3258 	 
C 	 -90.0092 	 -35.7504 	 -65.3628 	 
H 	 -90.2837 	 -37.7512 	 -66.2136 	 
C 	 -91.0534 	 -37.0961 	 -68.7488 	 
H 	 -91.1146 	 -38.1304 	 -68.4006 	 
H 	 -90.2362 	 -37.0145 	 -69.473 	 
C 	 -92.4883 	 -36.7788 	 -69.3047 	 
H 	 -93.4226 	 -36.9803 	 -68.7184 	 
H 	 -92.5745 	 -35.7485 	 -69.6425 	 
C 	 -92.7002 	 -37.5758 	 -70.5794 	 
H 	 -92.8742 	 -38.5953 	 -70.3561 	 
H 	 -93.5812 	 -37.286 	 -71.0961 	 
H 	 -91.9723 	 -37.4568 	 -71.2848 	 
S 	 -88.9849 	 -37.6874 	 -63.8123 	 
C 	 -88.1974 	 -37.3441 	 -62.3354 	 
C 	 -88.5919 	 -36.096 	 -61.8783 	 
C 	 -89.4031 	 -35.357 	 -62.784 	 
C 	 -89.5578 	 -36.0294 	 -64.0171 	 
H 	 -88.2992 	 -35.6858 	 -60.9483 	 
C 	 -89.7048 	 -33.8858 	 -62.5487 	 
H 	 -89.8273 	 -33.4302 	 -63.5308 	 
H 	 -88.8548 	 -33.3088 	 -62.235 	 
C 	 -90.9227 	 -33.628 	 -61.7252 	 
H 	 -90.9021 	 -32.5902 	 -61.2759 	 
H 	 -90.9223 	 -34.258 	 -60.8877 	 
C 	 -92.2017 	 -33.7241 	 -62.5825 	 
H 	 -92.0298 	 -33.0989 	 -63.4182 	 
H 	 -93.2222 	 -33.5343 	 -62.1416 	 
H 	 -92.27 	 -34.7097 	 -63.014 	 
H 	 -91.1582 	 -34.1176 	 -68.4449 	 
H 	 -87.6621 	 -38.083 	 -61.6961 	 
