34

S 	 28.0933 	 -5.41377 	 -117.904 	 
C 	 29.8041 	 -5.26757 	 -118.332 	 
C 	 30.5104 	 -6.25776 	 -117.675 	 
C 	 29.7381 	 -6.89416 	 -116.662 	 
C 	 28.3792 	 -6.54202 	 -116.665 	 
H 	 30.0787 	 -7.59931 	 -115.915 	 
C 	 32.0058 	 -6.56352 	 -117.763 	 
H 	 32.5891 	 -6.03532 	 -117.014 	 
H 	 32.2106 	 -6.16023 	 -118.808 	 
C 	 32.3596 	 -8.04914 	 -117.913 	 
H 	 33.3735 	 -7.99824 	 -118.263 	 
H 	 32.223 	 -8.6253 	 -116.997 	 
C 	 31.5956 	 -8.73643 	 -119.062 	 
H 	 31.9085 	 -9.77311 	 -119.042 	 
H 	 30.5499 	 -8.6893 	 -118.961 	 
H 	 31.7558 	 -8.13693 	 -119.94 	 
S 	 26.1226 	 -8.09205 	 -116.59 	 
C 	 25.3716 	 -8.44583 	 -114.983 	 
C 	 25.8826 	 -7.57222 	 -114.011 	 
C 	 27.0217 	 -6.84141 	 -114.446 	 
C 	 27.3053 	 -7.02786 	 -115.808 	 
H 	 25.3827 	 -7.53776 	 -113.055 	 
C 	 27.8342 	 -5.97824 	 -113.566 	 
H 	 27.0797 	 -5.56778 	 -112.891 	 
H 	 28.2998 	 -5.21308 	 -114.129 	 
C 	 28.8798 	 -6.75664 	 -112.733 	 
H 	 29.5382 	 -7.32373 	 -113.343 	 
H 	 28.3651 	 -7.43309 	 -111.993 	 
C 	 29.7218 	 -5.79983 	 -111.894 	 
H 	 30.503 	 -5.22732 	 -112.541 	 
H 	 30.4005 	 -6.37526 	 -111.233 	 
H 	 29.2594 	 -5.05245 	 -111.252 	 
H 	 30.1639 	 -4.55474 	 -118.976 	 
H 	 24.4153 	 -8.9601 	 -114.822 	 
