34

S 	 20.5645 	 -24.61 	 -121.049 	 
C 	 22.1337 	 -25.3698 	 -121.23 	 
C 	 22.9806 	 -24.9811 	 -120.196 	 
C 	 22.2997 	 -24.0726 	 -119.314 	 
C 	 21.0949 	 -23.6504 	 -119.733 	 
H 	 22.7733 	 -23.5414 	 -118.492 	 
C 	 24.3502 	 -25.4961 	 -119.889 	 
H 	 24.8631 	 -24.5564 	 -119.639 	 
H 	 24.779 	 -25.8807 	 -120.796 	 
C 	 24.5631 	 -26.4336 	 -118.737 	 
H 	 24.1965 	 -26.025 	 -117.812 	 
H 	 23.9908 	 -27.3332 	 -118.961 	 
C 	 26.0379 	 -26.7927 	 -118.507 	 
H 	 26.5833 	 -25.7867 	 -118.473 	 
H 	 26.1185 	 -27.3155 	 -117.626 	 
H 	 26.5071 	 -27.4188 	 -119.332 	 
S 	 18.8514 	 -23.1374 	 -118.25 	 
C 	 18.2225 	 -21.509 	 -118.071 	 
C 	 18.9716 	 -20.6394 	 -118.808 	 
C 	 20.0851 	 -21.2292 	 -119.459 	 
C 	 20.1926 	 -22.6048 	 -119.244 	 
H 	 18.6743 	 -19.5454 	 -118.817 	 
C 	 20.9835 	 -20.4059 	 -120.339 	 
H 	 22.0007 	 -20.4256 	 -119.943 	 
H 	 20.6535 	 -19.3983 	 -120.258 	 
C 	 20.9612 	 -20.8091 	 -121.842 	 
H 	 19.9646 	 -20.6918 	 -122.245 	 
H 	 21.2332 	 -21.8627 	 -121.929 	 
C 	 22.2113 	 -20.103 	 -122.508 	 
H 	 22.4891 	 -20.5341 	 -123.492 	 
H 	 23.1607 	 -20.1948 	 -121.916 	 
H 	 21.968 	 -19.0645 	 -122.849 	 
H 	 22.3875 	 -26.0566 	 -121.973 	 
H 	 17.3508 	 -21.1549 	 -117.61 	 
