34

S 	 -64.7225 	 11.8473 	 -101.353 	 
C 	 -64.269 	 12.8294 	 -99.9909 	 
C 	 -64.325 	 12.1504 	 -98.7864 	 
C 	 -64.7915 	 10.7754 	 -98.9554 	 
C 	 -65.0346 	 10.4311 	 -100.289 	 
H 	 -64.9963 	 10.0392 	 -98.2224 	 
C 	 -63.9296 	 12.6276 	 -97.4458 	 
H 	 -64.3719 	 12.0246 	 -96.6669 	 
H 	 -64.3988 	 13.5918 	 -97.2871 	 
C 	 -62.4365 	 12.8863 	 -97.1394 	 
H 	 -61.8952 	 13.2937 	 -97.9558 	 
H 	 -62.2787 	 13.6389 	 -96.3459 	 
C 	 -61.7503 	 11.5582 	 -96.5808 	 
H 	 -60.7008 	 11.7612 	 -96.4921 	 
H 	 -62.0211 	 11.423 	 -95.5644 	 
H 	 -61.8523 	 10.7392 	 -97.2575 	 
S 	 -66.0982 	 7.93046 	 -99.8504 	 
C 	 -65.7296 	 6.63603 	 -100.875 	 
C 	 -65.0907 	 7.09085 	 -102.032 	 
C 	 -64.8007 	 8.49114 	 -102.043 	 
C 	 -65.1351 	 9.06221 	 -100.793 	 
H 	 -64.94 	 6.42602 	 -102.835 	 
C 	 -64.1158 	 9.10963 	 -103.297 	 
H 	 -63.1899 	 9.50966 	 -102.997 	 
H 	 -64.8428 	 9.88393 	 -103.53 	 
C 	 -64.0675 	 8.16399 	 -104.499 	 
H 	 -64.9743 	 7.57569 	 -104.774 	 
H 	 -63.2341 	 7.51933 	 -104.302 	 
C 	 -63.5605 	 8.79819 	 -105.881 	 
H 	 -64.1663 	 9.70571 	 -105.997 	 
H 	 -63.8767 	 8.11206 	 -106.687 	 
H 	 -62.5152 	 8.96702 	 -105.945 	 
H 	 -63.7964 	 13.8106 	 -100.116 	 
H 	 -66.0245 	 5.66367 	 -100.589 	 
