34

S 	 -102.121 	 40.5587 	 -95.0556 	 
C 	 -101.291 	 39.0997 	 -94.3369 	 
C 	 -101.291 	 39.1889 	 -92.9652 	 
C 	 -101.946 	 40.3764 	 -92.4436 	 
C 	 -102.482 	 41.2061 	 -93.4255 	 
H 	 -102.095 	 40.569 	 -91.4076 	 
C 	 -100.65 	 38.1419 	 -91.9723 	 
H 	 -99.7209 	 38.5403 	 -91.5229 	 
H 	 -100.327 	 37.374 	 -92.5793 	 
C 	 -101.606 	 37.6253 	 -90.9184 	 
H 	 -102.219 	 38.4569 	 -90.616 	 
H 	 -102.258 	 36.8413 	 -91.3486 	 
C 	 -100.934 	 36.9311 	 -89.6965 	 
H 	 -100.003 	 36.5214 	 -90.1765 	 
H 	 -100.71 	 37.6244 	 -88.8752 	 
H 	 -101.489 	 36.0906 	 -89.3004 	 
S 	 -102.971 	 43.0454 	 -91.3115 	 
C 	 -103.515 	 44.6684 	 -91.8002 	 
C 	 -103.688 	 44.744 	 -93.1705 	 
C 	 -103.414 	 43.5256 	 -93.9028 	 
C 	 -102.996 	 42.5243 	 -93.0312 	 
H 	 -104.09 	 45.6595 	 -93.6515 	 
C 	 -103.522 	 43.401 	 -95.4112 	 
H 	 -104.512 	 43.8932 	 -95.7244 	 
H 	 -103.751 	 42.427 	 -95.7191 	 
C 	 -102.418 	 44.1349 	 -96.2584 	 
H 	 -101.473 	 43.8252 	 -95.9144 	 
H 	 -102.454 	 45.1863 	 -96.1543 	 
C 	 -102.698 	 43.8024 	 -97.6792 	 
H 	 -102.879 	 42.7539 	 -97.7314 	 
H 	 -101.824 	 44.0117 	 -98.3324 	 
H 	 -103.483 	 44.4187 	 -98.1422 	 
H 	 -100.847 	 38.2343 	 -94.9101 	 
H 	 -103.5 	 45.5599 	 -91.1279 	 
