34

S 	 -68.6234 	 15.8337 	 -75.1858 	 
C 	 -67.6982 	 14.9848 	 -76.3862 	 
C 	 -66.9741 	 13.9105 	 -75.7618 	 
C 	 -67.0662 	 13.9798 	 -74.3385 	 
C 	 -67.8982 	 14.9719 	 -73.8662 	 
H 	 -66.5366 	 13.2738 	 -73.6103 	 
C 	 -66.2019 	 12.844 	 -76.4452 	 
H 	 -67.0152 	 12.248 	 -76.963 	 
H 	 -65.8155 	 12.1597 	 -75.7176 	 
C 	 -65.0485 	 13.2917 	 -77.4063 	 
H 	 -64.4995 	 12.4124 	 -77.7479 	 
H 	 -65.4291 	 13.8562 	 -78.3294 	 
C 	 -64.0482 	 14.2526 	 -76.6695 	 
H 	 -64.5609 	 15.1389 	 -76.4038 	 
H 	 -63.7182 	 13.8583 	 -75.7148 	 
H 	 -63.1875 	 14.5246 	 -77.3261 	 
S 	 -69.8188 	 15.4629 	 -72.1044 	 
C 	 -69.4256 	 16.0372 	 -70.4982 	 
C 	 -68.0998 	 15.9162 	 -70.3054 	 
C 	 -67.3389 	 15.6843 	 -71.4776 	 
C 	 -68.1658 	 15.3851 	 -72.5611 	 
H 	 -67.8139 	 15.9832 	 -69.2457 	 
C 	 -65.854 	 15.6246 	 -71.4837 	 
H 	 -65.3571 	 15.5619 	 -72.4898 	 
H 	 -65.7082 	 14.7151 	 -70.9557 	 
C 	 -65.0308 	 16.6196 	 -70.5876 	 
H 	 -65.4089 	 16.5593 	 -69.5516 	 
H 	 -65.1762 	 17.6858 	 -70.9073 	 
C 	 -63.5199 	 16.3494 	 -70.5465 	 
H 	 -63.0214 	 16.7613 	 -71.4558 	 
H 	 -63.2553 	 15.3047 	 -70.5018 	 
H 	 -63.0851 	 16.9289 	 -69.6926 	 
H 	 -67.7632 	 15.1414 	 -77.4572 	 
H 	 -70.1437 	 16.123 	 -69.6698 	 
