34

S 	 -122.42 	 36.4336 	 -113.868 	 
C 	 -120.777 	 35.9835 	 -114.305 	 
C 	 -120.37 	 34.9189 	 -113.523 	 
C 	 -121.43 	 34.2732 	 -112.773 	 
C 	 -122.674 	 34.8949 	 -113.003 	 
H 	 -121.356 	 33.3852 	 -112.162 	 
C 	 -119.026 	 34.2578 	 -113.642 	 
H 	 -118.649 	 34.0415 	 -112.646 	 
H 	 -118.198 	 34.9463 	 -114.035 	 
C 	 -119.034 	 32.9181 	 -114.427 	 
H 	 -119.22 	 33.2018 	 -115.434 	 
H 	 -118.016 	 32.5143 	 -114.613 	 
C 	 -120.056 	 31.8021 	 -114.03 	 
H 	 -119.913 	 30.9923 	 -114.717 	 
H 	 -119.917 	 31.3145 	 -113.032 	 
H 	 -121.177 	 32.1103 	 -114.016 	 
S 	 -125.004 	 35.327 	 -111.457 	 
C 	 -126.379 	 34.259 	 -111.581 	 
C 	 -126.1 	 33.2156 	 -112.4 	 
C 	 -124.761 	 33.2479 	 -112.936 	 
C 	 -124.036 	 34.4322 	 -112.61 	 
H 	 -126.827 	 32.4167 	 -112.566 	 
C 	 -124.18 	 32.1815 	 -113.771 	 
H 	 -124.9 	 31.3657 	 -113.699 	 
H 	 -123.294 	 31.7214 	 -113.336 	 
C 	 -124.06 	 32.5628 	 -115.27 	 
H 	 -123.564 	 31.6918 	 -115.661 	 
H 	 -123.372 	 33.3754 	 -115.361 	 
C 	 -125.357 	 33.0373 	 -115.984 	 
H 	 -126.112 	 33.3754 	 -115.221 	 
H 	 -125.622 	 32.1371 	 -116.593 	 
H 	 -125.305 	 33.6971 	 -116.722 	 
H 	 -120.083 	 36.5566 	 -114.897 	 
H 	 -127.352 	 34.3193 	 -111.055 	 
