34

S 	 -134.039 	 6.04874 	 5.39591 	 
C 	 -134.351 	 4.63132 	 4.53998 	 
C 	 -134.622 	 3.51049 	 5.36808 	 
C 	 -134.467 	 3.88797 	 6.77578 	 
C 	 -134.139 	 5.22676 	 6.96274 	 
H 	 -134.505 	 3.24736 	 7.65649 	 
C 	 -134.849 	 2.14397 	 4.89352 	 
H 	 -135.293 	 2.29896 	 3.91663 	 
H 	 -135.565 	 1.77385 	 5.66113 	 
C 	 -133.744 	 1.16021 	 4.61712 	 
H 	 -133.327 	 1.47682 	 3.65359 	 
H 	 -133.007 	 1.17695 	 5.35617 	 
C 	 -134.121 	 -0.332884 	 4.56113 	 
H 	 -134.152 	 -0.732472 	 5.59215 	 
H 	 -135.054 	 -0.399554 	 4.04159 	 
H 	 -133.332 	 -0.952893 	 4.03823 	 
S 	 -132.738 	 7.23707 	 8.15076 	 
C 	 -132.724 	 7.36546 	 9.87402 	 
C 	 -133.548 	 6.4693 	 10.4555 	 
C 	 -134.245 	 5.66957 	 9.50581 	 
C 	 -133.742 	 5.81023 	 8.2211 	 
H 	 -133.489 	 6.41354 	 11.5282 	 
C 	 -135.37 	 4.75364 	 9.89851 	 
H 	 -135.814 	 4.33025 	 8.96131 	 
H 	 -136.061 	 5.46243 	 10.365 	 
C 	 -135.012 	 3.69465 	 10.9731 	 
H 	 -135.813 	 2.90684 	 10.9949 	 
H 	 -135.062 	 3.96588 	 11.9939 	 
C 	 -133.727 	 2.90923 	 10.7308 	 
H 	 -133.52 	 2.33006 	 11.5671 	 
H 	 -132.799 	 3.49509 	 10.5109 	 
H 	 -133.802 	 2.15502 	 9.95232 	 
H 	 -134.531 	 4.58956 	 3.47051 	 
H 	 -132.292 	 8.15748 	 10.5266 	 
