34

S 	 45.472 	 -19.4402 	 -110.733 	 
C 	 45.5973 	 -18.6546 	 -109.266 	 
C 	 45.1638 	 -19.4375 	 -108.166 	 
C 	 44.6442 	 -20.6865 	 -108.582 	 
C 	 44.8254 	 -20.9146 	 -109.967 	 
H 	 44.1047 	 -21.4878 	 -107.987 	 
C 	 45.1774 	 -19.0102 	 -106.77 	 
H 	 44.4954 	 -19.6246 	 -106.183 	 
H 	 44.8568 	 -18.0212 	 -106.743 	 
C 	 46.5335 	 -19.0132 	 -106.103 	 
H 	 46.8897 	 -20.088 	 -106.045 	 
H 	 47.2318 	 -18.3868 	 -106.643 	 
C 	 46.4557 	 -18.3803 	 -104.713 	 
H 	 46.2321 	 -19.0212 	 -103.857 	 
H 	 47.4004 	 -17.9399 	 -104.468 	 
H 	 45.7016 	 -17.5346 	 -104.664 	 
S 	 46.2304 	 -22.7615 	 -111.32 	 
C 	 45.409 	 -24.2414 	 -111.965 	 
C 	 44.0061 	 -24.1818 	 -111.836 	 
C 	 43.6225 	 -23.0746 	 -110.953 	 
C 	 44.6717 	 -22.1712 	 -110.719 	 
H 	 43.3389 	 -24.8987 	 -112.302 	 
C 	 42.3125 	 -22.877 	 -110.358 	 
H 	 42.2723 	 -22.686 	 -109.293 	 
H 	 41.8455 	 -23.871 	 -110.366 	 
C 	 41.5003 	 -21.789 	 -111.196 	 
H 	 41.4631 	 -22.0722 	 -112.208 	 
H 	 42.0327 	 -20.885 	 -111.092 	 
C 	 40.044 	 -21.6412 	 -110.744 	 
H 	 39.867 	 -21.0613 	 -109.756 	 
H 	 39.5045 	 -22.6315 	 -110.659 	 
H 	 39.4918 	 -21.0521 	 -111.405 	 
H 	 45.9579 	 -17.6512 	 -109.297 	 
H 	 45.8317 	 -25.0876 	 -112.535 	 
