34

S 	 -126.25 	 26.2027 	 -110.48 	 
C 	 -124.678 	 25.7969 	 -109.95 	 
C 	 -123.783 	 25.576 	 -111.044 	 
C 	 -124.451 	 25.8983 	 -112.275 	 
C 	 -125.763 	 26.334 	 -112.205 	 
H 	 -124.165 	 25.6401 	 -113.327 	 
C 	 -122.434 	 24.8747 	 -110.979 	 
H 	 -122.477 	 24.191 	 -111.843 	 
H 	 -122.313 	 24.2971 	 -110.023 	 
C 	 -121.148 	 25.7786 	 -111.228 	 
H 	 -121.308 	 26.6526 	 -110.577 	 
H 	 -120.277 	 25.1519 	 -110.977 	 
C 	 -121.12 	 26.3489 	 -112.671 	 
H 	 -120.308 	 27.0568 	 -112.75 	 
H 	 -121 	 25.5544 	 -113.419 	 
H 	 -121.922 	 26.9775 	 -112.909 	 
S 	 -128.315 	 25.9036 	 -113.205 	 
C 	 -128.759 	 26.6266 	 -114.718 	 
C 	 -127.675 	 27.1977 	 -115.375 	 
C 	 -126.535 	 27.238 	 -114.537 	 
C 	 -126.685 	 26.5644 	 -113.319 	 
H 	 -127.898 	 27.4563 	 -116.404 	 
C 	 -125.24 	 27.8665 	 -115.065 	 
H 	 -125.403 	 28.1815 	 -116.13 	 
H 	 -124.529 	 27.0399 	 -115.184 	 
C 	 -124.723 	 29.0681 	 -114.302 	 
H 	 -124.282 	 28.7582 	 -113.329 	 
H 	 -125.556 	 29.7727 	 -114.031 	 
C 	 -123.49 	 29.7756 	 -114.933 	 
H 	 -122.628 	 29.1233 	 -115.014 	 
H 	 -123.203 	 30.7252 	 -114.378 	 
H 	 -123.581 	 30.1338 	 -115.907 	 
H 	 -124.347 	 25.5529 	 -108.975 	 
H 	 -129.819 	 26.5868 	 -115.063 	 
