34

S 	 -52.0372 	 16.8432 	 -88.3553 	 
C 	 -52.8908 	 17.8641 	 -89.4993 	 
C 	 -53.196 	 19.1503 	 -89.0047 	 
C 	 -52.6519 	 19.3109 	 -87.7063 	 
C 	 -52.0335 	 18.1673 	 -87.1256 	 
H 	 -52.7324 	 20.2666 	 -87.1989 	 
C 	 -53.8083 	 20.3482 	 -89.6478 	 
H 	 -54.7656 	 20.6733 	 -89.1755 	 
H 	 -54.0163 	 20.1102 	 -90.7194 	 
C 	 -52.7479 	 21.5346 	 -89.6561 	 
H 	 -52.491 	 21.8953 	 -88.6752 	 
H 	 -51.8134 	 21.0992 	 -90.0867 	 
C 	 -53.2678 	 22.7219 	 -90.4551 	 
H 	 -54.1168 	 23.2019 	 -89.9678 	 
H 	 -52.5657 	 23.522 	 -90.703 	 
H 	 -53.5733 	 22.3173 	 -91.4273 	 
S 	 -51.8668 	 16.5022 	 -84.8344 	 
C 	 -51.3937 	 17.2478 	 -83.3516 	 
C 	 -50.7903 	 18.4728 	 -83.559 	 
C 	 -50.9547 	 18.9922 	 -84.8944 	 
C 	 -51.6171 	 18.0343 	 -85.7263 	 
H 	 -50.3966 	 18.9476 	 -82.6995 	 
C 	 -50.4772 	 20.3589 	 -85.199 	 
H 	 -50.8147 	 20.475 	 -86.2515 	 
H 	 -49.372 	 20.3014 	 -85.1839 	 
C 	 -50.9369 	 21.5666 	 -84.2782 	 
H 	 -50.3742 	 21.6893 	 -83.4005 	 
H 	 -51.9563 	 21.4033 	 -83.8762 	 
C 	 -51.124 	 22.8636 	 -85.0566 	 
H 	 -51.7586 	 22.7919 	 -85.9648 	 
H 	 -50.1952 	 23.2084 	 -85.4187 	 
H 	 -51.3861 	 23.7473 	 -84.5142 	 
H 	 -53.3868 	 17.6108 	 -90.3674 	 
H 	 -51.3291 	 16.6939 	 -82.3976 	 
