34

S 	 -61.7607 	 10.603 	 -17.5593 	 
C 	 -63.1815 	 10.8757 	 -16.5204 	 
C 	 -63.954 	 9.74478 	 -16.5551 	 
C 	 -63.3536 	 8.69139 	 -17.3347 	 
C 	 -62.0635 	 8.91475 	 -17.7478 	 
H 	 -63.7879 	 7.71014 	 -17.4873 	 
C 	 -65.2541 	 9.55099 	 -15.873 	 
H 	 -65.9767 	 9.6995 	 -16.6692 	 
H 	 -65.474 	 10.3183 	 -15.1362 	 
C 	 -65.3348 	 8.18587 	 -15.1897 	 
H 	 -65.434 	 7.37654 	 -15.8997 	 
H 	 -64.3552 	 8.04272 	 -14.6874 	 
C 	 -66.3722 	 8.12813 	 -14.0927 	 
H 	 -66.9863 	 7.23381 	 -14.2731 	 
H 	 -65.7327 	 7.99585 	 -13.2452 	 
H 	 -67.0901 	 8.97252 	 -13.9204 	 
S 	 -60.7635 	 8.87788 	 -20.1641 	 
C 	 -60.2691 	 7.33909 	 -20.9023 	 
C 	 -60.6337 	 6.29351 	 -20.0255 	 
C 	 -61.097 	 6.68692 	 -18.6826 	 
C 	 -61.361 	 8.05964 	 -18.6697 	 
H 	 -60.4671 	 5.26344 	 -20.2649 	 
C 	 -61.4225 	 5.67432 	 -17.5687 	 
H 	 -62.3625 	 6.03762 	 -17.1131 	 
H 	 -60.6279 	 5.69896 	 -16.8388 	 
C 	 -61.4698 	 4.22718 	 -17.9087 	 
H 	 -61.5171 	 3.65066 	 -16.9624 	 
H 	 -60.5426 	 3.82874 	 -18.2972 	 
C 	 -62.5025 	 3.82929 	 -18.9626 	 
H 	 -62.5743 	 4.57129 	 -19.7209 	 
H 	 -63.5051 	 3.99581 	 -18.5029 	 
H 	 -62.397 	 2.83137 	 -19.2785 	 
H 	 -63.3827 	 11.822 	 -15.9881 	 
H 	 -59.714 	 7.31314 	 -21.8058 	 
