34

S 	 -89.5917 	 -29.6608 	 -74.7661 	 
C 	 -87.8802 	 -30.1275 	 -74.8407 	 
C 	 -87.1742 	 -29.0865 	 -75.4274 	 
C 	 -87.9837 	 -28.2548 	 -76.2437 	 
C 	 -89.2748 	 -28.29 	 -75.8319 	 
H 	 -87.6835 	 -27.4822 	 -76.9167 	 
C 	 -85.6436 	 -28.987 	 -75.4972 	 
H 	 -85.2252 	 -28.7296 	 -74.5228 	 
H 	 -85.3877 	 -28.2861 	 -76.2292 	 
C 	 -85.1253 	 -30.3577 	 -75.9827 	 
H 	 -84.0462 	 -30.2848 	 -75.8767 	 
H 	 -85.3008 	 -31.1288 	 -75.1696 	 
C 	 -85.5048 	 -30.7253 	 -77.4617 	 
H 	 -85.2572 	 -31.7775 	 -77.7394 	 
H 	 -86.6018 	 -30.5547 	 -77.6743 	 
H 	 -84.9892 	 -30.0717 	 -78.163 	 
S 	 -90.8824 	 -26.2082 	 -75.1345 	 
C 	 -91.9569 	 -25.4163 	 -76.3231 	 
C 	 -91.8909 	 -26.1579 	 -77.4928 	 
C 	 -90.9037 	 -27.2236 	 -77.5208 	 
C 	 -90.3105 	 -27.3912 	 -76.2783 	 
H 	 -92.5149 	 -25.921 	 -78.3316 	 
C 	 -90.7078 	 -27.9941 	 -78.8168 	 
H 	 -91.5398 	 -27.6553 	 -79.5395 	 
H 	 -90.779 	 -29.0135 	 -78.5872 	 
C 	 -89.3403 	 -27.723 	 -79.6068 	 
H 	 -88.5638 	 -28.0713 	 -78.8822 	 
H 	 -89.2648 	 -26.6734 	 -79.7257 	 
C 	 -89.1814 	 -28.4768 	 -80.8572 	 
H 	 -89.2538 	 -29.5562 	 -80.727 	 
H 	 -88.2045 	 -28.2533 	 -81.3199 	 
H 	 -90.0361 	 -28.1135 	 -81.4793 	 
H 	 -87.3916 	 -30.8983 	 -74.2353 	 
H 	 -92.6599 	 -24.5799 	 -76.1883 	 
