34

S 	 -119.371 	 20.4817 	 -111.428 	 
C 	 -120.9 	 21.2812 	 -111.215 	 
C 	 -121.974 	 20.4664 	 -111.014 	 
C 	 -121.517 	 19.124 	 -110.866 	 
C 	 -120.165 	 18.9599 	 -110.997 	 
H 	 -122.156 	 18.2568 	 -110.813 	 
C 	 -123.412 	 20.9902 	 -110.983 	 
H 	 -123.64 	 21.1772 	 -112.02 	 
H 	 -123.531 	 21.958 	 -110.54 	 
C 	 -124.509 	 20.061 	 -110.4 	 
H 	 -124.674 	 19.1219 	 -110.844 	 
H 	 -124.12 	 19.7328 	 -109.435 	 
C 	 -125.967 	 20.7253 	 -110.299 	 
H 	 -125.93 	 21.7653 	 -109.971 	 
H 	 -126.473 	 20.6349 	 -111.269 	 
H 	 -126.534 	 20.0699 	 -109.571 	 
S 	 -118.094 	 17.6416 	 -109.693 	 
C 	 -117.501 	 16.0676 	 -110.195 	 
C 	 -118.461 	 15.5509 	 -111.02 	 
C 	 -119.475 	 16.46 	 -111.463 	 
C 	 -119.372 	 17.7124 	 -110.909 	 
H 	 -118.367 	 14.5126 	 -111.295 	 
C 	 -120.622 	 15.9804 	 -112.327 	 
H 	 -120.687 	 16.8653 	 -112.959 	 
H 	 -121.471 	 16.0051 	 -111.638 	 
C 	 -120.497 	 14.7522 	 -113.232 	 
H 	 -120.461 	 13.9192 	 -112.594 	 
H 	 -119.607 	 14.64 	 -113.804 	 
C 	 -121.721 	 14.4453 	 -114.123 	 
H 	 -122.505 	 14.6024 	 -113.411 	 
H 	 -121.729 	 13.4383 	 -114.435 	 
H 	 -121.696 	 15.0292 	 -115.025 	 
H 	 -121.083 	 22.2049 	 -111.743 	 
H 	 -116.853 	 15.348 	 -109.664 	 
