34

S 	 -95.9756 	 45.3626 	 -89.031 	 
C 	 -94.8654 	 44.532 	 -87.9181 	 
C 	 -94.5622 	 43.2553 	 -88.2781 	 
C 	 -95.4365 	 42.8634 	 -89.35 	 
C 	 -96.3909 	 43.7413 	 -89.7059 	 
H 	 -95.3015 	 41.9363 	 -89.8806 	 
C 	 -93.5802 	 42.3389 	 -87.5989 	 
H 	 -93.0922 	 42.9175 	 -86.7597 	 
H 	 -92.7836 	 42.0404 	 -88.2911 	 
C 	 -94.1663 	 41.0931 	 -86.8411 	 
H 	 -94.5311 	 41.427 	 -85.8193 	 
H 	 -95.0898 	 40.562 	 -87.3062 	 
C 	 -93.0641 	 39.9263 	 -86.7089 	 
H 	 -92.6268 	 39.7885 	 -87.648 	 
H 	 -92.362 	 40.1859 	 -85.9452 	 
H 	 -93.5411 	 39.0579 	 -86.3646 	 
S 	 -98.5651 	 45.0362 	 -90.729 	 
C 	 -99.3893 	 44.4183 	 -92.0727 	 
C 	 -99.1051 	 43.0754 	 -92.1506 	 
C 	 -98.0765 	 42.6097 	 -91.3159 	 
C 	 -97.4865 	 43.6165 	 -90.6197 	 
H 	 -99.7549 	 42.4831 	 -92.8527 	 
C 	 -97.6927 	 41.1192 	 -91.2438 	 
H 	 -96.6344 	 40.9716 	 -91.1085 	 
H 	 -97.934 	 40.6693 	 -92.2498 	 
C 	 -98.5087 	 40.4358 	 -90.1099 	 
H 	 -98.323 	 40.92 	 -89.1602 	 
H 	 -98.2588 	 39.3831 	 -90.0557 	 
C 	 -100.004 	 40.5269 	 -90.3761 	 
H 	 -100.524 	 39.9689 	 -89.5954 	 
H 	 -100.251 	 40.1385 	 -91.2838 	 
H 	 -100.386 	 41.5635 	 -90.2262 	 
H 	 -94.3683 	 45.0317 	 -87.1299 	 
H 	 -100.12 	 44.8628 	 -92.7024 	 
