34

S 	 -104.95 	 -1.30814 	 -107.071 	 
C 	 -105.597 	 -1.196 	 -105.477 	 
C 	 -104.672 	 -0.841465 	 -104.504 	 
C 	 -103.352 	 -0.73133 	 -105.087 	 
C 	 -103.285 	 -0.951278 	 -106.467 	 
H 	 -102.465 	 -0.499107 	 -104.553 	 
C 	 -104.984 	 -0.59277 	 -103.051 	 
H 	 -104.337 	 -1.21338 	 -102.48 	 
H 	 -106.035 	 -0.860083 	 -102.881 	 
C 	 -104.781 	 0.888017 	 -102.647 	 
H 	 -103.791 	 1.14583 	 -102.336 	 
H 	 -105.078 	 1.62332 	 -103.42 	 
C 	 -105.578 	 1.22837 	 -101.371 	 
H 	 -105.18 	 2.15675 	 -100.898 	 
H 	 -106.61 	 1.24933 	 -101.622 	 
H 	 -105.365 	 0.449194 	 -100.603 	 
S 	 -102.453 	 -1.26297 	 -109.047 	 
C 	 -100.811 	 -1.1006 	 -109.426 	 
C 	 -100.074 	 -0.605772 	 -108.366 	 
C 	 -100.8 	 -0.547113 	 -107.17 	 
C 	 -102.149 	 -0.860943 	 -107.337 	 
H 	 -99.0108 	 -0.38685 	 -108.513 	 
C 	 -100.038 	 -0.0527547 	 -105.938 	 
H 	 -100.744 	 0.508025 	 -105.382 	 
H 	 -99.1797 	 0.613939 	 -106.333 	 
C 	 -99.3602 	 -1.08721 	 -104.881 	 
H 	 -98.6795 	 -1.72847 	 -105.397 	 
H 	 -100.139 	 -1.77354 	 -104.366 	 
C 	 -98.6536 	 -0.363446 	 -103.75 	 
H 	 -98.2545 	 -1.14708 	 -103.128 	 
H 	 -99.2714 	 0.273763 	 -103.108 	 
H 	 -97.7477 	 0.132657 	 -104.183 	 
H 	 -106.651 	 -1.34504 	 -105.291 	 
H 	 -100.374 	 -1.24327 	 -110.36 	 
