34

S 	 -116.847 	 60.1074 	 -40.0122 	 
C 	 -116.055 	 58.5066 	 -39.8645 	 
C 	 -116.81 	 57.5082 	 -39.3321 	 
C 	 -118.13 	 58.0602 	 -38.8966 	 
C 	 -118.253 	 59.4559 	 -39.0815 	 
H 	 -118.919 	 57.547 	 -38.5416 	 
C 	 -116.461 	 56.0236 	 -39.1666 	 
H 	 -115.435 	 55.9083 	 -39.2995 	 
H 	 -117.042 	 55.4144 	 -39.8606 	 
C 	 -116.743 	 55.6738 	 -37.7144 	 
H 	 -116.41 	 56.4258 	 -37.0761 	 
H 	 -117.85 	 55.6872 	 -37.5125 	 
C 	 -116.137 	 54.3044 	 -37.3671 	 
H 	 -116.644 	 53.5146 	 -37.8815 	 
H 	 -115.036 	 54.3092 	 -37.4772 	 
H 	 -116.424 	 54.0282 	 -36.3786 	 
S 	 -119.14 	 61.4938 	 -37.4934 	 
C 	 -120.719 	 62.134 	 -37.7556 	 
C 	 -121.518 	 61.2224 	 -38.4423 	 
C 	 -120.719 	 60.257 	 -39.059 	 
C 	 -119.377 	 60.2481 	 -38.7015 	 
H 	 -122.613 	 61.4294 	 -38.5013 	 
C 	 -121.308 	 59.1225 	 -39.9397 	 
H 	 -120.471 	 58.5777 	 -40.3417 	 
H 	 -121.89 	 59.6479 	 -40.7453 	 
C 	 -122.187 	 58 	 -39.3121 	 
H 	 -123.124 	 58.5435 	 -39.0271 	 
H 	 -121.713 	 57.6311 	 -38.3829 	 
C 	 -122.36 	 56.7171 	 -40.2394 	 
H 	 -122.453 	 57.0532 	 -41.2495 	 
H 	 -123.363 	 56.283 	 -39.9473 	 
H 	 -121.643 	 55.921 	 -40.0737 	 
H 	 -115.057 	 58.2568 	 -40.1986 	 
H 	 -121.074 	 62.9431 	 -37.1688 	 
