34

S 	 -35.2589 	 -42.8891 	 -79.7805 	 
C 	 -36.4304 	 -41.7959 	 -79.034 	 
C 	 -35.817 	 -40.8054 	 -78.3041 	 
C 	 -34.3747 	 -40.8509 	 -78.4808 	 
C 	 -33.9259 	 -41.9477 	 -79.1171 	 
H 	 -33.7055 	 -40.1982 	 -78.0873 	 
C 	 -36.5213 	 -39.702 	 -77.466 	 
H 	 -35.9728 	 -39.4068 	 -76.5546 	 
H 	 -37.4167 	 -40.1102 	 -77.0965 	 
C 	 -36.9245 	 -38.5792 	 -78.4 	 
H 	 -36.0185 	 -38.1884 	 -78.8516 	 
H 	 -37.5437 	 -38.8987 	 -79.2033 	 
C 	 -37.6831 	 -37.4734 	 -77.6886 	 
H 	 -37.275 	 -37.1081 	 -76.7142 	 
H 	 -37.7026 	 -36.7478 	 -78.4772 	 
H 	 -38.699 	 -37.9692 	 -77.6576 	 
S 	 -31.8558 	 -43.7943 	 -78.6008 	 
C 	 -30.3699 	 -43.5667 	 -79.5145 	 
C 	 -30.3012 	 -42.3049 	 -80.1417 	 
C 	 -31.5019 	 -41.547 	 -79.9468 	 
C 	 -32.5399 	 -42.3138 	 -79.3893 	 
H 	 -29.3834 	 -41.9803 	 -80.5959 	 
C 	 -31.5847 	 -40.1001 	 -80.4522 	 
H 	 -30.6211 	 -39.6039 	 -80.6936 	 
H 	 -32.0212 	 -39.4261 	 -79.6411 	 
C 	 -32.4177 	 -39.9206 	 -81.7079 	 
H 	 -32.3366 	 -38.891 	 -81.8897 	 
H 	 -33.4912 	 -40.0556 	 -81.5422 	 
C 	 -32.022 	 -40.6963 	 -82.9305 	 
H 	 -30.9708 	 -40.8102 	 -83.0688 	 
H 	 -32.4658 	 -40.2027 	 -83.8323 	 
H 	 -32.3755 	 -41.7632 	 -82.792 	 
H 	 -37.4802 	 -42.0692 	 -78.9143 	 
H 	 -29.6199 	 -44.3611 	 -79.4329 	 
