34

S 	 -65.6648 	 9.60577 	 -100.862 	 
C 	 -65.4081 	 11.3021 	 -101.025 	 
C 	 -66.1014 	 11.7238 	 -102.162 	 
C 	 -66.9296 	 10.7068 	 -102.781 	 
C 	 -66.9268 	 9.54251 	 -102.075 	 
H 	 -67.5235 	 10.8964 	 -103.654 	 
C 	 -66.0017 	 13.0615 	 -102.877 	 
H 	 -65.6211 	 13.8499 	 -102.202 	 
H 	 -67.0486 	 13.2678 	 -103.097 	 
C 	 -65.1797 	 13.1962 	 -104.192 	 
H 	 -64.0772 	 13.3309 	 -104.072 	 
H 	 -65.1612 	 12.2554 	 -104.825 	 
C 	 -65.5389 	 14.3982 	 -105.108 	 
H 	 -65.4643 	 15.2699 	 -104.527 	 
H 	 -64.905 	 14.3995 	 -106.004 	 
H 	 -66.5588 	 14.2946 	 -105.366 	 
S 	 -66.6361 	 6.91738 	 -102.674 	 
C 	 -68.0415 	 5.94701 	 -102.86 	 
C 	 -69.1572 	 6.68692 	 -102.872 	 
C 	 -68.9792 	 8.07917 	 -102.618 	 
C 	 -67.6387 	 8.32228 	 -102.477 	 
H 	 -70.0707 	 6.17996 	 -102.969 	 
C 	 -70.0465 	 9.19537 	 -102.476 	 
H 	 -70.9584 	 9.06186 	 -103.075 	 
H 	 -69.5622 	 10.0524 	 -102.902 	 
C 	 -70.5315 	 9.486 	 -101.088 	 
H 	 -69.6917 	 9.62939 	 -100.387 	 
H 	 -71.0781 	 8.65356 	 -100.704 	 
C 	 -71.5278 	 10.5765 	 -101.317 	 
H 	 -71.0135 	 11.4244 	 -101.625 	 
H 	 -72.1137 	 10.8292 	 -100.408 	 
H 	 -72.2391 	 10.3379 	 -102.188 	 
H 	 -64.8244 	 11.9837 	 -100.464 	 
H 	 -67.9605 	 4.93741 	 -103.16 	 
