34

S 	 -75.0053 	 7.67225 	 -109.981 	 
C 	 -76.0739 	 8.29948 	 -108.768 	 
C 	 -75.3967 	 8.52277 	 -107.535 	 
C 	 -74.0013 	 8.34458 	 -107.756 	 
C 	 -73.6224 	 7.88204 	 -108.973 	 
H 	 -73.1831 	 8.38999 	 -107.099 	 
C 	 -76.0433 	 8.99171 	 -106.22 	 
H 	 -76.3832 	 8.14218 	 -105.619 	 
H 	 -77.0172 	 9.41796 	 -106.459 	 
C 	 -75.1858 	 9.93609 	 -105.266 	 
H 	 -74.1455 	 9.58857 	 -105.06 	 
H 	 -75.1211 	 10.9123 	 -105.798 	 
C 	 -75.9086 	 10.2577 	 -103.919 	 
H 	 -75.9812 	 9.41036 	 -103.175 	 
H 	 -75.4668 	 11.1654 	 -103.43 	 
H 	 -76.9155 	 10.6078 	 -103.975 	 
S 	 -71.8867 	 5.6883 	 -109.084 	 
C 	 -70.3899 	 5.93744 	 -109.898 	 
C 	 -70.1864 	 7.25737 	 -110.278 	 
C 	 -71.284 	 8.14369 	 -109.956 	 
C 	 -72.3039 	 7.43197 	 -109.313 	 
H 	 -69.248 	 7.652 	 -110.713 	 
C 	 -71.1347 	 9.6724 	 -110.208 	 
H 	 -71.9856 	 9.89042 	 -110.836 	 
H 	 -70.2224 	 9.78486 	 -110.792 	 
C 	 -71.12 	 10.5278 	 -108.915 	 
H 	 -70.2797 	 10.0193 	 -108.306 	 
H 	 -72.0915 	 10.5519 	 -108.459 	 
C 	 -70.7621 	 12.0474 	 -108.977 	 
H 	 -71.3958 	 12.6095 	 -109.615 	 
H 	 -69.7809 	 12.2795 	 -109.307 	 
H 	 -70.8701 	 12.5646 	 -108.026 	 
H 	 -77.1158 	 8.26771 	 -108.905 	 
H 	 -69.662 	 5.16052 	 -109.895 	 
