34

S 	 -52.2553 	 14.1984 	 -107.955 	 
C 	 -52.7628 	 12.5937 	 -107.277 	 
C 	 -51.8307 	 12.0996 	 -106.462 	 
C 	 -50.8366 	 13.062 	 -106.121 	 
C 	 -50.8623 	 14.203 	 -106.872 	 
H 	 -50.073 	 12.9173 	 -105.396 	 
C 	 -51.8638 	 10.7475 	 -105.848 	 
H 	 -50.9111 	 10.2539 	 -105.714 	 
H 	 -52.414 	 10.2302 	 -106.641 	 
C 	 -52.8324 	 10.4937 	 -104.685 	 
H 	 -53.9154 	 10.8026 	 -104.784 	 
H 	 -52.994 	 9.38426 	 -104.588 	 
C 	 -52.2362 	 10.8551 	 -103.274 	 
H 	 -51.8009 	 11.8675 	 -103.418 	 
H 	 -52.9948 	 10.899 	 -102.523 	 
H 	 -51.4199 	 10.1883 	 -102.89 	 
S 	 -49.1521 	 15.635 	 -105.215 	 
C 	 -48.37 	 17.0057 	 -105.812 	 
C 	 -48.7145 	 17.3012 	 -107.138 	 
C 	 -49.6752 	 16.3737 	 -107.662 	 
C 	 -49.9947 	 15.3774 	 -106.718 	 
H 	 -48.4233 	 18.1873 	 -107.735 	 
C 	 -50.2243 	 16.6064 	 -109.039 	 
H 	 -50.6334 	 15.7216 	 -109.576 	 
H 	 -49.2782 	 16.7939 	 -109.642 	 
C 	 -51.2654 	 17.6384 	 -109.286 	 
H 	 -50.9509 	 18.5473 	 -108.789 	 
H 	 -52.1645 	 17.3044 	 -108.827 	 
C 	 -51.4581 	 17.9655 	 -110.75 	 
H 	 -52.1851 	 18.7903 	 -110.942 	 
H 	 -51.9027 	 16.993 	 -111.187 	 
H 	 -50.5309 	 18.3009 	 -111.166 	 
H 	 -53.6164 	 12.113 	 -107.774 	 
H 	 -47.7007 	 17.7582 	 -105.338 	 
