34

S 	 -16.6388 	 -27.9305 	 -93.6544 	 
C 	 -15.7332 	 -29.3097 	 -93.0184 	 
C 	 -16.1742 	 -30.5303 	 -93.4544 	 
C 	 -17.2148 	 -30.321 	 -94.3417 	 
C 	 -17.6142 	 -29.0312 	 -94.5364 	 
H 	 -17.7363 	 -31.1095 	 -94.873 	 
C 	 -15.4413 	 -31.8882 	 -93.228 	 
H 	 -16.1301 	 -32.4193 	 -92.638 	 
H 	 -14.6031 	 -31.6059 	 -92.5826 	 
C 	 -14.8733 	 -32.5344 	 -94.5464 	 
H 	 -14.2986 	 -33.4572 	 -94.3553 	 
H 	 -15.742 	 -32.8521 	 -95.1367 	 
C 	 -13.9335 	 -31.6219 	 -95.3701 	 
H 	 -14.3252 	 -30.6276 	 -95.6166 	 
H 	 -12.9335 	 -31.4268 	 -94.8861 	 
H 	 -13.7513 	 -32.0379 	 -96.3267 	 
S 	 -20.0128 	 -27.6087 	 -94.7057 	 
C 	 -20.8703 	 -27.4279 	 -96.2624 	 
C 	 -20.1362 	 -28.0444 	 -97.2477 	 
C 	 -18.9562 	 -28.7554 	 -96.6897 	 
C 	 -18.7217 	 -28.5022 	 -95.389 	 
H 	 -20.4189 	 -28.0804 	 -98.3152 	 
C 	 -18.2506 	 -29.7323 	 -97.6222 	 
H 	 -19.0045 	 -30.2291 	 -98.1998 	 
H 	 -17.9082 	 -30.4813 	 -97.0095 	 
C 	 -17.194 	 -29.1275 	 -98.6219 	 
H 	 -16.3108 	 -28.6737 	 -98.0459 	 
H 	 -17.5959 	 -28.3209 	 -99.1183 	 
C 	 -16.7612 	 -30.2054 	 -99.505 	 
H 	 -16.2416 	 -31.0769 	 -99.0938 	 
H 	 -16.0305 	 -29.9177 	 -100.277 	 
H 	 -17.621 	 -30.4548 	 -100.179 	 
H 	 -14.7535 	 -29.1181 	 -92.6319 	 
H 	 -21.8121 	 -26.9465 	 -96.4517 	 
