34

S 	 27.7842 	 -24.6987 	 -131.514 	 
C 	 28.0746 	 -25.8832 	 -132.759 	 
C 	 27.9487 	 -27.1696 	 -132.22 	 
C 	 27.851 	 -27.1649 	 -130.764 	 
C 	 27.9629 	 -25.9159 	 -130.261 	 
H 	 27.8643 	 -28.0351 	 -130.133 	 
C 	 27.9499 	 -28.5141 	 -133.001 	 
H 	 27.6676 	 -28.3537 	 -134.041 	 
H 	 27.2138 	 -29.1788 	 -132.563 	 
C 	 29.3585 	 -29.2657 	 -133.023 	 
H 	 30.1118 	 -28.6316 	 -133.574 	 
H 	 29.6775 	 -29.4237 	 -132.002 	 
C 	 29.2377 	 -30.5846 	 -133.653 	 
H 	 28.5807 	 -31.1896 	 -133.022 	 
H 	 28.8517 	 -30.5168 	 -134.705 	 
H 	 30.1924 	 -31.1127 	 -133.626 	 
S 	 29.6074 	 -25.9223 	 -128.111 	 
C 	 29.0156 	 -25.4672 	 -126.503 	 
C 	 27.681 	 -25.1314 	 -126.61 	 
C 	 27.1918 	 -25.0514 	 -127.941 	 
C 	 28.0579 	 -25.6626 	 -128.855 	 
H 	 27.0458 	 -24.8391 	 -125.792 	 
C 	 25.7719 	 -24.5488 	 -128.161 	 
H 	 25.1692 	 -24.9927 	 -127.346 	 
H 	 25.3891 	 -24.9925 	 -129.069 	 
C 	 25.5853 	 -22.9997 	 -128.268 	 
H 	 26.0596 	 -22.4573 	 -127.431 	 
H 	 24.5131 	 -22.7728 	 -128.159 	 
C 	 26.1212 	 -22.4219 	 -129.632 	 
H 	 25.7707 	 -21.4412 	 -129.846 	 
H 	 25.8339 	 -23.1453 	 -130.361 	 
H 	 27.1605 	 -22.3183 	 -129.76 	 
H 	 28.2336 	 -25.604 	 -133.846 	 
H 	 29.5156 	 -25.4673 	 -125.589 	 
