34

S 	 -51.8017 	 10.7274 	 -101.365 	 
C 	 -52.8737 	 9.33552 	 -101.07 	 
C 	 -53.8601 	 9.36794 	 -102.025 	 
C 	 -53.7493 	 10.3355 	 -103.015 	 
C 	 -52.7244 	 11.2011 	 -102.813 	 
H 	 -54.2934 	 10.4132 	 -103.968 	 
C 	 -54.8047 	 8.19069 	 -102.266 	 
H 	 -55.7777 	 8.62276 	 -102.574 	 
H 	 -54.936 	 7.71202 	 -101.285 	 
C 	 -54.3573 	 7.11544 	 -103.203 	 
H 	 -54.0252 	 7.70001 	 -104.112 	 
H 	 -53.486 	 6.68033 	 -102.911 	 
C 	 -55.4378 	 6.10528 	 -103.611 	 
H 	 -56.3889 	 6.44017 	 -103.899 	 
H 	 -55.0284 	 5.56181 	 -104.467 	 
H 	 -55.6039 	 5.41296 	 -102.827 	 
S 	 -52.9419 	 13.8852 	 -103.059 	 
C 	 -52.2058 	 14.743 	 -104.357 	 
C 	 -51.4799 	 13.9145 	 -105.166 	 
C 	 -51.5361 	 12.5167 	 -104.793 	 
C 	 -52.3106 	 12.3244 	 -103.643 	 
H 	 -50.7982 	 14.3658 	 -105.879 	 
C 	 -50.9862 	 11.3405 	 -105.628 	 
H 	 -51.4006 	 10.5 	 -105.182 	 
H 	 -49.9403 	 11.2189 	 -105.374 	 
C 	 -51.2564 	 11.3478 	 -107.114 	 
H 	 -50.697 	 10.3855 	 -107.443 	 
H 	 -50.7499 	 12.1929 	 -107.516 	 
C 	 -52.7086 	 11.3628 	 -107.695 	 
H 	 -52.9988 	 12.3897 	 -107.635 	 
H 	 -53.3268 	 10.5984 	 -107.337 	 
H 	 -52.638 	 11.1901 	 -108.776 	 
H 	 -52.8064 	 8.73005 	 -100.172 	 
H 	 -52.1725 	 15.7742 	 -104.382 	 
