34

S 	 27.8929 	 -26.0049 	 -133.32 	 
C 	 27.1032 	 -24.4226 	 -133.138 	 
C 	 27.0815 	 -24.0265 	 -131.793 	 
C 	 27.8329 	 -24.9447 	 -131.002 	 
C 	 28.3536 	 -26.045 	 -131.675 	 
H 	 27.9417 	 -24.7803 	 -129.995 	 
C 	 26.4863 	 -22.7489 	 -131.269 	 
H 	 25.509 	 -22.9766 	 -130.875 	 
H 	 26.3964 	 -22.0402 	 -132.052 	 
C 	 27.4667 	 -22.0497 	 -130.277 	 
H 	 27.7987 	 -22.6526 	 -129.452 	 
H 	 28.3725 	 -21.7468 	 -130.701 	 
C 	 26.8267 	 -20.8431 	 -129.724 	 
H 	 26.5995 	 -20.0808 	 -130.437 	 
H 	 25.9101 	 -21.1725 	 -129.234 	 
H 	 27.345 	 -20.3275 	 -128.861 	 
S 	 28.7032 	 -28.7423 	 -131.677 	 
C 	 29.6909 	 -29.4771 	 -130.421 	 
C 	 30.293 	 -28.5118 	 -129.661 	 
C 	 29.9815 	 -27.216 	 -130.017 	 
C 	 29.0136 	 -27.1866 	 -131.041 	 
H 	 30.8362 	 -28.683 	 -128.728 	 
C 	 30.5458 	 -25.9791 	 -129.196 	 
H 	 29.873 	 -25.9582 	 -128.35 	 
H 	 30.4957 	 -25.1025 	 -129.772 	 
C 	 31.9657 	 -26.0623 	 -128.567 	 
H 	 32.7874 	 -26.0576 	 -129.243 	 
H 	 32.1595 	 -26.8952 	 -127.885 	 
C 	 32.2768 	 -24.6803 	 -127.688 	 
H 	 32.3577 	 -23.7168 	 -128.227 	 
H 	 33.1846 	 -24.797 	 -127.055 	 
H 	 31.4701 	 -24.5934 	 -126.998 	 
H 	 26.7286 	 -23.7613 	 -134.045 	 
H 	 29.8572 	 -30.5213 	 -130.141 	 
