34

S 	 0.145121 	 -21.5406 	 -114.196 	 
C 	 0.490153 	 -19.7936 	 -114.1 	 
C 	 -0.538125 	 -19.1262 	 -113.462 	 
C 	 -1.55266 	 -20.0689 	 -112.968 	 
C 	 -1.40191 	 -21.3702 	 -113.479 	 
H 	 -2.30723 	 -19.8089 	 -112.332 	 
C 	 -0.572252 	 -17.6462 	 -113.23 	 
H 	 0.144738 	 -17.2812 	 -113.919 	 
H 	 -0.226237 	 -17.5077 	 -112.215 	 
C 	 -1.79341 	 -16.861 	 -113.641 	 
H 	 -2.6299 	 -17.3738 	 -113.186 	 
H 	 -1.68187 	 -15.9052 	 -113.1 	 
C 	 -1.93758 	 -16.5291 	 -115.155 	 
H 	 -1.50481 	 -17.2441 	 -115.812 	 
H 	 -3.08255 	 -16.3775 	 -115.332 	 
H 	 -1.44207 	 -15.6356 	 -115.448 	 
S 	 -1.84322 	 -23.6668 	 -112.199 	 
C 	 -3.36207 	 -24.4005 	 -112.251 	 
C 	 -4.29246 	 -23.6491 	 -112.981 	 
C 	 -3.70422 	 -22.4954 	 -113.568 	 
C 	 -2.36084 	 -22.4078 	 -113.211 	 
H 	 -5.33303 	 -23.9769 	 -113.015 	 
C 	 -4.44779 	 -21.4747 	 -114.422 	 
H 	 -3.74011 	 -21.3133 	 -115.258 	 
H 	 -4.60145 	 -20.4901 	 -113.905 	 
C 	 -5.85322 	 -21.893 	 -114.974 	 
H 	 -6.17415 	 -21.0553 	 -115.594 	 
H 	 -6.60051 	 -22.0746 	 -114.156 	 
C 	 -5.80979 	 -23.14 	 -115.896 	 
H 	 -5.82332 	 -24.1845 	 -115.424 	 
H 	 -4.91908 	 -23.0022 	 -116.539 	 
H 	 -6.64138 	 -22.8823 	 -116.577 	 
H 	 1.26207 	 -19.2452 	 -114.582 	 
H 	 -3.60551 	 -25.2709 	 -111.768 	 
