34

S 	 -68.2122 	 -1.02651 	 -107.149 	 
C 	 -68.3647 	 -0.840975 	 -105.444 	 
C 	 -68.7587 	 0.437376 	 -105.092 	 
C 	 -68.6634 	 1.33437 	 -106.175 	 
C 	 -68.2758 	 0.715177 	 -107.326 	 
H 	 -68.5679 	 2.396 	 -106.156 	 
C 	 -69.3691 	 0.861628 	 -103.723 	 
H 	 -68.8164 	 1.7433 	 -103.354 	 
H 	 -69.2695 	 0.143177 	 -102.894 	 
C 	 -70.8365 	 1.40874 	 -103.796 	 
H 	 -71.0687 	 2.16127 	 -104.585 	 
H 	 -71.5446 	 0.556372 	 -103.99 	 
C 	 -71.2465 	 1.99288 	 -102.411 	 
H 	 -72.3076 	 2.14068 	 -102.421 	 
H 	 -70.8702 	 1.30354 	 -101.648 	 
H 	 -70.8275 	 2.98839 	 -102.267 	 
S 	 -68.6348 	 1.29613 	 -110.031 	 
C 	 -67.2513 	 2.00242 	 -110.895 	 
C 	 -66.2992 	 2.35409 	 -110.065 	 
C 	 -66.4814 	 1.89976 	 -108.714 	 
C 	 -67.7095 	 1.33427 	 -108.524 	 
H 	 -65.4284 	 2.82005 	 -110.43 	 
C 	 -65.3944 	 2.05199 	 -107.736 	 
H 	 -65.903 	 2.3883 	 -106.823 	 
H 	 -64.7603 	 2.77844 	 -108.098 	 
C 	 -64.7343 	 0.748487 	 -107.396 	 
H 	 -64.2647 	 0.435741 	 -108.369 	 
H 	 -65.3818 	 0.0309949 	 -107.18 	 
C 	 -63.5916 	 0.920741 	 -106.441 	 
H 	 -63.122 	 -0.0230748 	 -106.135 	 
H 	 -63.9719 	 1.30561 	 -105.481 	 
H 	 -62.9264 	 1.62251 	 -106.89 	 
H 	 -68.402 	 -1.6699 	 -104.784 	 
H 	 -67.2633 	 2.24678 	 -111.942 	 
