34

S 	 -137.658 	 24.9894 	 -17.0849 	 
C 	 -138.231 	 23.6822 	 -16.1284 	 
C 	 -138.269 	 22.5369 	 -16.8874 	 
C 	 -137.8 	 22.7662 	 -18.2212 	 
C 	 -137.369 	 24.0643 	 -18.5295 	 
H 	 -137.618 	 22.153 	 -19.0218 	 
C 	 -138.815 	 21.21 	 -16.5221 	 
H 	 -139.787 	 21.0039 	 -17.095 	 
H 	 -139.076 	 21.175 	 -15.4822 	 
C 	 -138.014 	 19.936 	 -16.7961 	 
H 	 -138.714 	 19.1641 	 -16.5458 	 
H 	 -137.667 	 19.8714 	 -17.8004 	 
C 	 -136.807 	 19.7459 	 -15.8079 	 
H 	 -137.069 	 19.8616 	 -14.8182 	 
H 	 -136.309 	 18.7918 	 -15.9255 	 
H 	 -136.114 	 20.6136 	 -15.9922 	 
S 	 -134.932 	 25.2917 	 -19.0144 	 
C 	 -134.392 	 25.59 	 -20.611 	 
C 	 -135.245 	 24.9744 	 -21.52 	 
C 	 -136.309 	 24.2779 	 -20.8861 	 
C 	 -136.408 	 24.5224 	 -19.5206 	 
H 	 -135.137 	 24.9517 	 -22.616 	 
C 	 -137.265 	 23.5495 	 -21.7803 	 
H 	 -137.304 	 24.2897 	 -22.6043 	 
H 	 -138.276 	 23.5251 	 -21.3052 	 
C 	 -136.915 	 22.2171 	 -22.2683 	 
H 	 -136.396 	 21.6751 	 -21.4433 	 
H 	 -136.235 	 22.2899 	 -23.0724 	 
C 	 -138.134 	 21.3642 	 -22.6874 	 
H 	 -138.733 	 21.7975 	 -23.471 	 
H 	 -138.841 	 21.1769 	 -21.9341 	 
H 	 -137.769 	 20.4614 	 -23.1366 	 
H 	 -138.603 	 23.7222 	 -15.1009 	 
H 	 -133.653 	 26.3308 	 -20.8764 	 
