34

S 	 -104.895 	 60.1275 	 -101.422 	 
C 	 -105.894 	 58.7276 	 -101.846 	 
C 	 -105.426 	 57.5446 	 -101.348 	 
C 	 -104.376 	 57.7435 	 -100.466 	 
C 	 -104.032 	 59.0621 	 -100.289 	 
H 	 -103.922 	 56.9062 	 -99.9751 	 
C 	 -106.111 	 56.24 	 -101.661 	 
H 	 -106.992 	 56.4549 	 -102.373 	 
H 	 -106.626 	 56.0257 	 -100.684 	 
C 	 -105.121 	 55.1183 	 -102.067 	 
H 	 -104.331 	 55.1166 	 -101.264 	 
H 	 -105.561 	 54.1855 	 -101.935 	 
C 	 -104.407 	 55.4128 	 -103.475 	 
H 	 -105.094 	 55.1616 	 -104.318 	 
H 	 -104.215 	 56.4652 	 -103.442 	 
H 	 -103.4 	 55.0229 	 -103.475 	 
S 	 -103.233 	 60.7688 	 -98.2957 	 
C 	 -101.523 	 60.8687 	 -97.8902 	 
C 	 -100.758 	 59.9436 	 -98.5769 	 
C 	 -101.548 	 59.1989 	 -99.556 	 
C 	 -102.906 	 59.5366 	 -99.5144 	 
H 	 -99.7289 	 59.9133 	 -98.5218 	 
C 	 -100.912 	 58.3305 	 -100.549 	 
H 	 -100.41 	 59.0112 	 -101.182 	 
H 	 -101.586 	 57.8808 	 -101.226 	 
C 	 -100.002 	 57.2663 	 -99.9974 	 
H 	 -100.554 	 56.688 	 -99.2668 	 
H 	 -99.2256 	 57.8401 	 -99.4825 	 
C 	 -99.4388 	 56.4262 	 -101.109 	 
H 	 -98.9604 	 55.5162 	 -100.793 	 
H 	 -98.6232 	 56.9389 	 -101.595 	 
H 	 -100.185 	 56.1596 	 -101.911 	 
H 	 -106.812 	 58.7661 	 -102.39 	 
H 	 -101.144 	 61.4897 	 -97.0976 	 
