34

S 	 37.3594 	 -26.147 	 -113.181 	 
C 	 39.0842 	 -26.3969 	 -113.292 	 
C 	 39.7159 	 -25.3253 	 -113.87 	 
C 	 38.7748 	 -24.3742 	 -114.296 	 
C 	 37.4709 	 -24.5465 	 -113.93 	 
H 	 38.9451 	 -23.4615 	 -114.989 	 
C 	 41.171 	 -25.1929 	 -114.179 	 
H 	 41.2384 	 -24.9097 	 -115.227 	 
H 	 41.6489 	 -26.1414 	 -113.872 	 
C 	 41.9129 	 -23.979 	 -113.54 	 
H 	 42.9041 	 -23.9124 	 -113.846 	 
H 	 41.3439 	 -23.0999 	 -113.864 	 
C 	 41.9466 	 -24.0918 	 -111.983 	 
H 	 42.6875 	 -24.8923 	 -111.767 	 
H 	 42.2558 	 -23.1833 	 -111.513 	 
H 	 41.061 	 -24.3116 	 -111.457 	 
S 	 35.3629 	 -24.9156 	 -115.655 	 
C 	 34.2178 	 -23.5983 	 -115.933 	 
C 	 34.7215 	 -22.4617 	 -115.339 	 
C 	 35.9069 	 -22.6038 	 -114.555 	 
C 	 36.3447 	 -23.9213 	 -114.546 	 
H 	 34.1626 	 -21.4796 	 -115.36 	 
C 	 36.4179 	 -21.4207 	 -113.718 	 
H 	 36.6484 	 -21.8466 	 -112.736 	 
H 	 35.6274 	 -20.6828 	 -113.521 	 
C 	 37.6054 	 -20.6697 	 -114.27 	 
H 	 38.3743 	 -21.4015 	 -114.389 	 
H 	 37.9872 	 -19.9609 	 -113.532 	 
C 	 37.4952 	 -20.1009 	 -115.688 	 
H 	 36.9362 	 -20.8188 	 -116.171 	 
H 	 38.4946 	 -19.9846 	 -116.147 	 
H 	 37.0494 	 -19.0941 	 -115.66 	 
H 	 39.6908 	 -27.2566 	 -113.034 	 
H 	 33.3755 	 -23.6858 	 -116.579 	 
