34

S 	 -42.7207 	 -3.39783 	 19.136 	 
C 	 -43.7406 	 -3.94014 	 17.8558 	 
C 	 -44.4447 	 -5.09784 	 18.1652 	 
C 	 -44.2747 	 -5.41458 	 19.5518 	 
C 	 -43.5075 	 -4.48261 	 20.24 	 
H 	 -44.708 	 -6.1463 	 20.1607 	 
C 	 -45.2289 	 -5.85048 	 17.0499 	 
H 	 -45.336 	 -6.96819 	 17.1449 	 
H 	 -44.5586 	 -5.66532 	 16.2018 	 
C 	 -46.6119 	 -5.25407 	 16.8757 	 
H 	 -47.2527 	 -5.53005 	 17.7825 	 
H 	 -46.5056 	 -4.25026 	 16.8547 	 
C 	 -47.4235 	 -5.80806 	 15.6726 	 
H 	 -47.0756 	 -5.27392 	 14.6902 	 
H 	 -47.4033 	 -6.84306 	 15.616 	 
H 	 -48.4694 	 -5.42637 	 15.6468 	 
S 	 -43.493 	 -6.13642 	 22.4732 	 
C 	 -42.9185 	 -5.36817 	 24.0313 	 
C 	 -42.7835 	 -3.98701 	 23.9287 	 
C 	 -42.9856 	 -3.54334 	 22.5901 	 
C 	 -43.2701 	 -4.56015 	 21.6826 	 
H 	 -42.4385 	 -3.36009 	 24.7366 	 
C 	 -42.775 	 -2.09214 	 22.2576 	 
H 	 -43.1333 	 -1.56116 	 23.1406 	 
H 	 -43.4493 	 -1.91053 	 21.4255 	 
C 	 -41.3408 	 -1.6798 	 21.8791 	 
H 	 -41.2018 	 -0.730783 	 21.3427 	 
H 	 -40.9583 	 -2.54323 	 21.3438 	 
C 	 -40.4665 	 -1.47387 	 23.1227 	 
H 	 -40.396 	 -2.37381 	 23.6719 	 
H 	 -40.8284 	 -0.703939 	 23.819 	 
H 	 -39.4577 	 -1.16734 	 22.8962 	 
H 	 -43.8103 	 -3.72191 	 16.852 	 
H 	 -42.8762 	 -5.80344 	 24.9994 	 
