34

S 	 -55.3897 	 -50.2484 	 -80.0818 	 
C 	 -55.8156 	 -50.1324 	 -81.8326 	 
C 	 -55.1205 	 -49.0859 	 -82.3799 	 
C 	 -54.234 	 -48.4066 	 -81.4718 	 
C 	 -54.1353 	 -49.0053 	 -80.2367 	 
H 	 -53.6432 	 -47.565 	 -81.8059 	 
C 	 -55.317 	 -48.5349 	 -83.7987 	 
H 	 -55.7605 	 -49.2977 	 -84.5106 	 
H 	 -54.293 	 -48.2709 	 -84.1754 	 
C 	 -56.2514 	 -47.3014 	 -83.9117 	 
H 	 -56.482 	 -47.1874 	 -84.9422 	 
H 	 -57.21 	 -47.4403 	 -83.4843 	 
C 	 -55.815 	 -45.9251 	 -83.4278 	 
H 	 -55.7615 	 -45.9456 	 -82.309 	 
H 	 -54.8276 	 -45.6328 	 -83.8768 	 
H 	 -56.4929 	 -45.1942 	 -83.7649 	 
S 	 -52.3602 	 -49.6521 	 -78.1498 	 
C 	 -51.9061 	 -48.3713 	 -77.0201 	 
C 	 -52.469 	 -47.1813 	 -77.376 	 
C 	 -53.3503 	 -47.1942 	 -78.4752 	 
C 	 -53.4121 	 -48.4957 	 -79.0729 	 
H 	 -52.3778 	 -46.3136 	 -76.7628 	 
C 	 -54.2014 	 -46.0369 	 -78.9401 	 
H 	 -54.5908 	 -45.6399 	 -77.9885 	 
H 	 -55.0788 	 -46.4292 	 -79.451 	 
C 	 -53.5098 	 -45.0006 	 -79.7776 	 
H 	 -53.0564 	 -45.4029 	 -80.6516 	 
H 	 -52.7443 	 -44.5353 	 -79.1854 	 
C 	 -54.464 	 -43.8862 	 -80.1435 	 
H 	 -55.4027 	 -44.3387 	 -80.4544 	 
H 	 -54.1545 	 -43.2667 	 -80.9756 	 
H 	 -54.5677 	 -43.1512 	 -79.3066 	 
H 	 -56.5981 	 -50.6214 	 -82.3888 	 
H 	 -51.3981 	 -48.491 	 -76.0529 	 
