34

S 	 -126.152 	 25.2381 	 -109.687 	 
C 	 -124.491 	 25.3816 	 -109.199 	 
C 	 -123.728 	 25.7589 	 -110.294 	 
C 	 -124.473 	 25.8269 	 -111.532 	 
C 	 -125.821 	 25.492 	 -111.343 	 
H 	 -123.923 	 26.0941 	 -112.472 	 
C 	 -122.18 	 26.0384 	 -110.167 	 
H 	 -121.766 	 26.1269 	 -111.163 	 
H 	 -121.676 	 25.2236 	 -109.651 	 
C 	 -121.827 	 27.3716 	 -109.438 	 
H 	 -122.42 	 27.4801 	 -108.48 	 
H 	 -120.812 	 27.3055 	 -109.172 	 
C 	 -121.993 	 28.676 	 -110.173 	 
H 	 -121.363 	 28.7861 	 -111.064 	 
H 	 -123.021 	 28.6792 	 -110.532 	 
H 	 -121.971 	 29.5736 	 -109.621 	 
S 	 -127.927 	 23.9964 	 -112.236 	 
C 	 -128.669 	 24.4469 	 -113.8 	 
C 	 -128.002 	 25.5019 	 -114.381 	 
C 	 -126.855 	 25.9165 	 -113.652 	 
C 	 -126.837 	 25.3795 	 -112.322 	 
H 	 -128.335 	 25.8648 	 -115.365 	 
C 	 -125.973 	 27.0705 	 -114.175 	 
H 	 -126.123 	 27.2047 	 -115.288 	 
H 	 -124.89 	 26.89 	 -113.947 	 
C 	 -126.424 	 28.3759 	 -113.435 	 
H 	 -126.261 	 28.2648 	 -112.321 	 
H 	 -127.514 	 28.3482 	 -113.369 	 
C 	 -125.756 	 29.633 	 -114.101 	 
H 	 -124.658 	 29.4823 	 -114.09 	 
H 	 -126.042 	 30.5922 	 -113.689 	 
H 	 -126.045 	 29.5678 	 -115.136 	 
H 	 -124.225 	 25.3278 	 -108.2 	 
H 	 -129.592 	 24.0652 	 -114.182 	 
