34

S 	 -67.7422 	 16.8802 	 -105.128 	 
C 	 -69.2596 	 16.0697 	 -105.224 	 
C 	 -69.1068 	 14.7198 	 -104.896 	 
C 	 -67.7378 	 14.4458 	 -104.513 	 
C 	 -66.9269 	 15.6063 	 -104.325 	 
H 	 -67.546 	 13.4616 	 -104.092 	 
C 	 -70.3264 	 13.8581 	 -104.658 	 
H 	 -70.9264 	 14.3512 	 -104.003 	 
H 	 -70.0484 	 12.8964 	 -104.221 	 
C 	 -70.9985 	 13.4438 	 -105.941 	 
H 	 -71.5325 	 14.2916 	 -106.439 	 
H 	 -70.2873 	 13.1267 	 -106.693 	 
C 	 -72.1673 	 12.5164 	 -105.705 	 
H 	 -71.7442 	 11.6222 	 -105.385 	 
H 	 -72.9374 	 12.8711 	 -104.948 	 
H 	 -72.5582 	 12.395 	 -106.74 	 
S 	 -65.1424 	 14.9722 	 -102.326 	 
C 	 -63.4517 	 15.4674 	 -102.365 	 
C 	 -63.2271 	 16.1771 	 -103.548 	 
C 	 -64.3899 	 16.3154 	 -104.379 	 
C 	 -65.506 	 15.6708 	 -103.871 	 
H 	 -62.1711 	 16.4485 	 -103.747 	 
C 	 -64.2592 	 16.9815 	 -105.66 	 
H 	 -63.5957 	 17.8127 	 -105.607 	 
H 	 -65.2049 	 17.4523 	 -105.986 	 
C 	 -63.7664 	 16.1622 	 -106.875 	 
H 	 -62.7549 	 15.7787 	 -106.743 	 
H 	 -63.607 	 16.7454 	 -107.715 	 
C 	 -64.7061 	 14.9594 	 -107.053 	 
H 	 -64.3826 	 14.2822 	 -107.879 	 
H 	 -65.7222 	 15.3645 	 -107.231 	 
H 	 -64.8213 	 14.2707 	 -106.208 	 
H 	 -70.1873 	 16.5021 	 -105.481 	 
H 	 -62.6796 	 15.1402 	 -101.708 	 
