34

S 	 -124.68 	 27.4937 	 -112.126 	 
C 	 -125.12 	 25.9482 	 -112.875 	 
C 	 -124.959 	 24.9402 	 -111.995 	 
C 	 -124.617 	 25.4561 	 -110.679 	 
C 	 -124.412 	 26.7939 	 -110.572 	 
H 	 -124.378 	 24.7815 	 -109.829 	 
C 	 -125.064 	 23.4502 	 -112.359 	 
H 	 -124.27 	 23.1359 	 -111.701 	 
H 	 -124.88 	 23.227 	 -113.398 	 
C 	 -126.456 	 22.7049 	 -112.058 	 
H 	 -126.934 	 22.9536 	 -111.16 	 
H 	 -127.147 	 22.9373 	 -112.854 	 
C 	 -126.35 	 21.1588 	 -111.978 	 
H 	 -127.303 	 20.6563 	 -111.964 	 
H 	 -125.907 	 20.8297 	 -112.902 	 
H 	 -125.815 	 20.8521 	 -111.097 	 
S 	 -122.577 	 28.6099 	 -109.553 	 
C 	 -122.461 	 29.0279 	 -107.928 	 
C 	 -123.567 	 28.4937 	 -107.217 	 
C 	 -124.309 	 27.5302 	 -107.961 	 
C 	 -123.994 	 27.5292 	 -109.358 	 
H 	 -123.67 	 28.7894 	 -106.167 	 
C 	 -125.416 	 26.7081 	 -107.378 	 
H 	 -126.055 	 26.4581 	 -108.194 	 
H 	 -126.032 	 27.4003 	 -106.777 	 
C 	 -125.099 	 25.3705 	 -106.619 	 
H 	 -124.604 	 25.5657 	 -105.691 	 
H 	 -124.351 	 24.7077 	 -107.122 	 
C 	 -126.488 	 24.715 	 -106.213 	 
H 	 -127.149 	 25.2465 	 -105.507 	 
H 	 -126.282 	 23.7858 	 -105.648 	 
H 	 -127.047 	 24.303 	 -107.094 	 
H 	 -125.297 	 25.9009 	 -113.924 	 
H 	 -121.725 	 29.6554 	 -107.429 	 
