34

S 	 -130.863 	 12.6894 	 -10.726 	 
C 	 -129.995 	 12.0539 	 -9.34608 	 
C 	 -129.231 	 10.9222 	 -9.59769 	 
C 	 -129.226 	 10.7244 	 -11.0314 	 
C 	 -130.058 	 11.4927 	 -11.7715 	 
H 	 -128.607 	 10.0531 	 -11.6165 	 
C 	 -128.235 	 10.2563 	 -8.60183 	 
H 	 -128.068 	 9.22518 	 -8.96941 	 
H 	 -128.527 	 10.1894 	 -7.61605 	 
C 	 -126.832 	 10.7978 	 -8.74757 	 
H 	 -126.15 	 9.91118 	 -8.67097 	 
H 	 -126.591 	 11.1957 	 -9.77252 	 
C 	 -126.578 	 11.8044 	 -7.6133 	 
H 	 -126.685 	 11.3254 	 -6.67501 	 
H 	 -125.609 	 12.1801 	 -7.52801 	 
H 	 -127.295 	 12.6297 	 -7.63488 	 
S 	 -130.071 	 12.9973 	 -13.9835 	 
C 	 -130.02 	 12.3031 	 -15.5537 	 
C 	 -130.102 	 10.956 	 -15.522 	 
C 	 -130.169 	 10.4276 	 -14.1951 	 
C 	 -130.021 	 11.448 	 -13.2356 	 
H 	 -130.116 	 10.3378 	 -16.4002 	 
C 	 -130.371 	 8.91591 	 -14.0053 	 
H 	 -129.785 	 8.47546 	 -13.1449 	 
H 	 -129.982 	 8.43877 	 -14.9379 	 
C 	 -131.792 	 8.3826 	 -13.8988 	 
H 	 -132.463 	 8.94561 	 -14.4206 	 
H 	 -132.087 	 8.56497 	 -12.8929 	 
C 	 -131.948 	 6.90313 	 -14.2873 	 
H 	 -132.925 	 6.5126 	 -14.2329 	 
H 	 -131.332 	 6.25991 	 -13.6137 	 
H 	 -131.528 	 6.6671 	 -15.3468 	 
H 	 -130.313 	 12.4528 	 -8.40622 	 
H 	 -129.935 	 12.7749 	 -16.4534 	 
