34

S 	 -61.7493 	 11.9524 	 -86.3487 	 
C 	 -63.028 	 11.1185 	 -87.2472 	 
C 	 -63.9081 	 10.4731 	 -86.4343 	 
C 	 -63.5821 	 10.7216 	 -85.0312 	 
C 	 -62.4618 	 11.526 	 -84.8698 	 
H 	 -64.231 	 10.4394 	 -84.1549 	 
C 	 -65.1768 	 9.61278 	 -86.8162 	 
H 	 -65.0464 	 8.8133 	 -86.075 	 
H 	 -64.9392 	 9.13888 	 -87.8121 	 
C 	 -66.5852 	 10.2686 	 -86.7344 	 
H 	 -67.3541 	 9.47287 	 -86.8936 	 
H 	 -66.7293 	 10.7333 	 -85.7557 	 
C 	 -66.7722 	 11.3334 	 -87.7158 	 
H 	 -67.8157 	 11.7235 	 -87.738 	 
H 	 -66.0701 	 12.1666 	 -87.6263 	 
H 	 -66.7194 	 10.9462 	 -88.7462 	 
S 	 -60.8951 	 13.4335 	 -83.7591 	 
C 	 -60.2799 	 13.311 	 -82.105 	 
C 	 -60.8926 	 12.2463 	 -81.4684 	 
C 	 -61.8093 	 11.5371 	 -82.2841 	 
C 	 -61.8735 	 12.0074 	 -83.6262 	 
H 	 -60.5949 	 12.1315 	 -80.4647 	 
C 	 -62.4364 	 10.2057 	 -81.8046 	 
H 	 -61.8529 	 9.8206 	 -80.9437 	 
H 	 -62.3086 	 9.34647 	 -82.4399 	 
C 	 -63.8648 	 10.2626 	 -81.2785 	 
H 	 -63.9589 	 9.43723 	 -80.6393 	 
H 	 -64.5251 	 10.1276 	 -82.2048 	 
C 	 -64.0946 	 11.6074 	 -80.508 	 
H 	 -64.1635 	 12.4242 	 -81.2413 	 
H 	 -63.1827 	 11.8193 	 -79.873 	 
H 	 -64.9691 	 11.5727 	 -79.9002 	 
H 	 -62.9949 	 11.1143 	 -88.3644 	 
H 	 -59.6494 	 14.0608 	 -81.5234 	 
