34

S 	 -110.086 	 62.266 	 -73.0988 	 
C 	 -109.445 	 60.6592 	 -73.3391 	 
C 	 -110.027 	 59.6741 	 -72.535 	 
C 	 -111.193 	 60.2047 	 -71.845 	 
C 	 -111.278 	 61.5942 	 -71.9614 	 
H 	 -111.917 	 59.5948 	 -71.303 	 
C 	 -109.558 	 58.2119 	 -72.4912 	 
H 	 -108.695 	 58.0692 	 -73.211 	 
H 	 -110.377 	 57.5493 	 -72.8895 	 
C 	 -109.002 	 57.6555 	 -71.1618 	 
H 	 -108.64 	 56.6562 	 -71.2803 	 
H 	 -108.174 	 58.2247 	 -70.8903 	 
C 	 -110.021 	 57.7257 	 -69.9839 	 
H 	 -110.022 	 58.7837 	 -69.7436 	 
H 	 -110.984 	 57.3115 	 -70.2872 	 
H 	 -109.719 	 57.1686 	 -69.0751 	 
S 	 -111.645 	 63.733 	 -70.2971 	 
C 	 -113.372 	 64.0329 	 -69.6752 	 
C 	 -114.249 	 63.2064 	 -70.3549 	 
C 	 -113.647 	 62.2576 	 -71.223 	 
C 	 -112.27 	 62.3762 	 -71.2725 	 
H 	 -115.31 	 63.3689 	 -70.1378 	 
C 	 -114.479 	 61.203 	 -71.9357 	 
H 	 -114.62 	 60.3992 	 -71.2077 	 
H 	 -113.865 	 60.8044 	 -72.8555 	 
C 	 -115.917 	 61.4352 	 -72.3062 	 
H 	 -116.511 	 61.3394 	 -71.383 	 
H 	 -116.188 	 60.5976 	 -72.9615 	 
C 	 -116.34 	 62.657 	 -73.1531 	 
H 	 -116.068 	 63.6118 	 -72.6219 	 
H 	 -117.354 	 62.8251 	 -73.3321 	 
H 	 -115.765 	 62.6223 	 -74.069 	 
H 	 -108.58 	 60.5116 	 -74.0715 	 
H 	 -113.611 	 64.7305 	 -68.9414 	 
