34

S 	 -109.271 	 -1.05551 	 -107.347 	 
C 	 -109.904 	 -0.00704197 	 -106.079 	 
C 	 -110.305 	 1.18369 	 -106.651 	 
C 	 -109.971 	 1.25184 	 -108.053 	 
C 	 -109.293 	 0.138279 	 -108.542 	 
H 	 -110.07 	 2.05833 	 -108.74 	 
C 	 -110.832 	 2.33647 	 -105.891 	 
H 	 -110 	 2.85232 	 -105.471 	 
H 	 -111.42 	 1.92618 	 -105.073 	 
C 	 -111.809 	 3.27593 	 -106.653 	 
H 	 -112.194 	 4.06608 	 -105.973 	 
H 	 -111.358 	 3.72961 	 -107.521 	 
C 	 -113.163 	 2.60167 	 -107.035 	 
H 	 -112.878 	 1.62931 	 -107.376 	 
H 	 -113.789 	 2.50789 	 -106.126 	 
H 	 -113.747 	 3.1492 	 -107.773 	 
S 	 -106.873 	 -0.233545 	 -109.854 	 
C 	 -106.803 	 -0.140883 	 -111.574 	 
C 	 -108.079 	 0.0667493 	 -112.087 	 
C 	 -109.092 	 0.178513 	 -111.126 	 
C 	 -108.602 	 -0.00542873 	 -109.84 	 
H 	 -108.223 	 0.174458 	 -113.152 	 
C 	 -110.546 	 0.561186 	 -111.413 	 
H 	 -111.087 	 0.934914 	 -110.561 	 
H 	 -111.091 	 -0.346322 	 -111.687 	 
C 	 -110.785 	 1.51388 	 -112.628 	 
H 	 -111.892 	 1.61101 	 -112.764 	 
H 	 -110.337 	 1.08458 	 -113.567 	 
C 	 -110.169 	 2.91553 	 -112.509 	 
H 	 -109.048 	 2.75565 	 -112.52 	 
H 	 -110.454 	 3.40107 	 -111.562 	 
H 	 -110.574 	 3.43686 	 -113.328 	 
H 	 -110.006 	 -0.221395 	 -105.034 	 
H 	 -106.004 	 -0.255633 	 -112.303 	 
