34

S 	 42.014 	 -29.5784 	 -120.331 	 
C 	 41.387 	 -29.4599 	 -121.981 	 
C 	 41.1029 	 -30.69 	 -122.543 	 
C 	 41.5971 	 -31.7429 	 -121.726 	 
C 	 42.1686 	 -31.2927 	 -120.521 	 
H 	 41.6705 	 -32.82 	 -122.019 	 
C 	 40.6341 	 -30.9623 	 -123.97 	 
H 	 40.2935 	 -30.0317 	 -124.41 	 
H 	 39.7315 	 -31.6009 	 -123.847 	 
C 	 41.548 	 -31.6962 	 -124.917 	 
H 	 41.9289 	 -32.552 	 -124.485 	 
H 	 40.9974 	 -32.0974 	 -125.795 	 
C 	 42.6789 	 -30.864 	 -125.404 	 
H 	 43.3972 	 -30.5243 	 -124.63 	 
H 	 43.1439 	 -31.4807 	 -126.191 	 
H 	 42.3058 	 -29.9857 	 -125.949 	 
S 	 44.348 	 -31.5424 	 -118.994 	 
C 	 44.7521 	 -32.9583 	 -118.119 	 
C 	 43.6742 	 -33.8261 	 -118.104 	 
C 	 42.6806 	 -33.401 	 -119.027 	 
C 	 42.8442 	 -32.1108 	 -119.53 	 
H 	 43.6543 	 -34.6474 	 -117.441 	 
C 	 41.4687 	 -34.2382 	 -119.367 	 
H 	 41.6521 	 -35.2235 	 -119.021 	 
H 	 41.2765 	 -34.3617 	 -120.421 	 
C 	 40.2054 	 -33.6822 	 -118.784 	 
H 	 39.9412 	 -32.7762 	 -119.311 	 
H 	 40.3705 	 -33.4963 	 -117.757 	 
C 	 39.0196 	 -34.5695 	 -118.964 	 
H 	 38.9185 	 -35.0078 	 -119.951 	 
H 	 38.0693 	 -34.1055 	 -118.635 	 
H 	 39.0457 	 -35.402 	 -118.337 	 
H 	 41.1049 	 -28.5428 	 -122.465 	 
H 	 45.6094 	 -33.0167 	 -117.458 	 
