34

S 	 -119.385 	 49.4813 	 -32.1864 	 
C 	 -120.725 	 48.4216 	 -32.5909 	 
C 	 -121.702 	 49.0911 	 -33.2968 	 
C 	 -121.247 	 50.4676 	 -33.4781 	 
C 	 -120.001 	 50.8101 	 -32.9802 	 
H 	 -121.753 	 51.1734 	 -34.0889 	 
C 	 -122.977 	 48.6384 	 -33.8904 	 
H 	 -123.39 	 47.9868 	 -33.0941 	 
H 	 -122.826 	 47.9692 	 -34.7263 	 
C 	 -124.024 	 49.6382 	 -34.314 	 
H 	 -123.607 	 50.1214 	 -35.2186 	 
H 	 -124.888 	 49.1188 	 -34.6553 	 
C 	 -124.468 	 50.5045 	 -33.1408 	 
H 	 -123.723 	 51.1204 	 -32.6495 	 
H 	 -125.264 	 51.119 	 -33.3524 	 
H 	 -124.747 	 49.8343 	 -32.3189 	 
S 	 -117.74 	 52.3559 	 -33.1833 	 
C 	 -117.948 	 54.0111 	 -33.1744 	 
C 	 -119.204 	 54.4647 	 -32.7415 	 
C 	 -120.107 	 53.3421 	 -32.6676 	 
C 	 -119.498 	 52.1569 	 -33.034 	 
H 	 -119.342 	 55.5476 	 -32.727 	 
C 	 -121.549 	 53.5235 	 -32.3397 	 
H 	 -122.286 	 52.9798 	 -32.9639 	 
H 	 -121.933 	 54.577 	 -32.5499 	 
C 	 -121.92 	 53.0814 	 -30.955 	 
H 	 -121.513 	 52.0575 	 -30.7613 	 
H 	 -122.975 	 53.0323 	 -30.8363 	 
C 	 -121.42 	 53.9645 	 -29.7633 	 
H 	 -121.848 	 53.5903 	 -28.8602 	 
H 	 -121.764 	 55.0009 	 -29.7935 	 
H 	 -120.288 	 53.9714 	 -29.7432 	 
H 	 -120.855 	 47.3589 	 -32.406 	 
H 	 -117.064 	 54.6836 	 -33.158 	 
