34

S 	 -137.032 	 5.62864 	 0.806368 	 
C 	 -135.693 	 6.40021 	 0.0784504 	 
C 	 -134.497 	 6.01017 	 0.706126 	 
C 	 -134.752 	 5.35625 	 1.95207 	 
C 	 -136.075 	 5.11946 	 2.09925 	 
H 	 -133.966 	 5.02121 	 2.63977 	 
C 	 -133.066 	 6.33732 	 0.32594 	 
H 	 -132.59 	 6.86077 	 1.08975 	 
H 	 -133.209 	 6.99199 	 -0.540447 	 
C 	 -132.156 	 5.27283 	 -0.239762 	 
H 	 -131.265 	 5.80208 	 -0.658417 	 
H 	 -131.75 	 4.6272 	 0.551623 	 
C 	 -132.791 	 4.4311 	 -1.39418 	 
H 	 -132.936 	 5.03833 	 -2.32615 	 
H 	 -132.162 	 3.54953 	 -1.56012 	 
H 	 -133.787 	 4.14301 	 -1.11474 	 
S 	 -138.185 	 5.15075 	 3.82997 	 
C 	 -138.371 	 3.90381 	 5.03148 	 
C 	 -137.545 	 2.8591 	 4.7547 	 
C 	 -136.552 	 3.20748 	 3.78241 	 
C 	 -136.786 	 4.41673 	 3.18103 	 
H 	 -137.725 	 1.93518 	 5.27412 	 
C 	 -135.541 	 2.14482 	 3.24862 	 
H 	 -135.345 	 1.40096 	 3.98133 	 
H 	 -134.651 	 2.68512 	 3.13496 	 
C 	 -136.031 	 1.48455 	 1.96675 	 
H 	 -135.489 	 0.628528 	 1.76621 	 
H 	 -135.803 	 2.15346 	 1.1511 	 
C 	 -137.496 	 1.17933 	 1.98517 	 
H 	 -137.749 	 0.547471 	 1.16975 	 
H 	 -138.021 	 2.06856 	 1.78001 	 
H 	 -137.841 	 0.739086 	 2.90225 	 
H 	 -135.693 	 6.92303 	 -0.902069 	 
H 	 -139.299 	 3.77501 	 5.57381 	 
