34

S 	 -66.73 	 10.6577 	 -73.6018 	 
C 	 -67.3827 	 10.1913 	 -72.0775 	 
C 	 -68.6836 	 10.502 	 -72.0367 	 
C 	 -69.1603 	 11.1492 	 -73.247 	 
C 	 -68.2358 	 11.1548 	 -74.2799 	 
H 	 -70.163 	 11.3371 	 -73.5694 	 
C 	 -69.5961 	 10.1797 	 -70.8608 	 
H 	 -70.1603 	 11.0779 	 -70.5443 	 
H 	 -69.018 	 9.86924 	 -69.9999 	 
C 	 -70.5595 	 9.07584 	 -71.2549 	 
H 	 -71.1731 	 8.78126 	 -70.3896 	 
H 	 -71.3802 	 9.40347 	 -72.0304 	 
C 	 -69.8727 	 7.75644 	 -71.634 	 
H 	 -69.1297 	 7.96696 	 -72.313 	 
H 	 -69.3506 	 7.29512 	 -70.7771 	 
H 	 -70.6603 	 7.05465 	 -71.9952 	 
S 	 -67.2844 	 12.421 	 -76.5741 	 
C 	 -68.0798 	 12.3319 	 -78.0451 	 
C 	 -69.3085 	 11.6594 	 -77.9604 	 
C 	 -69.43 	 11.0208 	 -76.6139 	 
C 	 -68.4471 	 11.4198 	 -75.69 	 
H 	 -69.9629 	 11.4657 	 -78.7654 	 
C 	 -70.4311 	 9.83105 	 -76.3399 	 
H 	 -71.0656 	 9.84983 	 -77.245 	 
H 	 -71.0229 	 10.2679 	 -75.489 	 
C 	 -69.8464 	 8.46882 	 -76.0717 	 
H 	 -69.331 	 8.51073 	 -75.0894 	 
H 	 -68.967 	 8.33529 	 -76.6827 	 
C 	 -70.7351 	 7.25354 	 -76.2219 	 
H 	 -71.272 	 7.18581 	 -77.1978 	 
H 	 -71.5497 	 7.30103 	 -75.4312 	 
H 	 -70.2215 	 6.31347 	 -76.035 	 
H 	 -66.8217 	 9.83813 	 -71.2958 	 
H 	 -67.8336 	 12.9335 	 -78.9506 	 
