34

S 	 -39.1548 	 13.5499 	 -9.70916 	 
C 	 -38.6471 	 12.0957 	 -10.4941 	 
C 	 -38.639 	 10.9942 	 -9.6437 	 
C 	 -39.1681 	 11.3107 	 -8.40834 	 
C 	 -39.3998 	 12.6653 	 -8.25112 	 
H 	 -39.3062 	 10.7365 	 -7.55094 	 
C 	 -38.3409 	 9.597 	 -10.0058 	 
H 	 -37.9513 	 9.51442 	 -11.026 	 
H 	 -39.1742 	 8.98609 	 -9.92357 	 
C 	 -37.1875 	 9.10105 	 -9.05426 	 
H 	 -36.3271 	 9.77068 	 -8.83626 	 
H 	 -37.6386 	 9.15022 	 -8.10612 	 
C 	 -36.7322 	 7.63909 	 -9.39921 	 
H 	 -36.3346 	 7.51092 	 -10.4596 	 
H 	 -35.9596 	 7.22831 	 -8.70743 	 
H 	 -37.4757 	 6.84549 	 -9.21349 	 
S 	 -41.3196 	 14.0272 	 -6.74755 	 
C 	 -41.0558 	 14.1899 	 -5.04711 	 
C 	 -39.7952 	 13.7489 	 -4.72908 	 
C 	 -39.0352 	 13.1775 	 -5.78391 	 
C 	 -39.7835 	 13.1742 	 -6.94919 	 
H 	 -39.4367 	 13.9597 	 -3.67904 	 
C 	 -37.5379 	 12.778 	 -5.62239 	 
H 	 -37.3693 	 11.8291 	 -6.18065 	 
H 	 -37.2653 	 12.5747 	 -4.58486 	 
C 	 -36.5693 	 13.8531 	 -6.11376 	 
H 	 -36.9257 	 14.8471 	 -5.71347 	 
H 	 -36.7964 	 13.7323 	 -7.16976 	 
C 	 -35.0966 	 13.47 	 -5.687 	 
H 	 -34.8054 	 12.6212 	 -6.29416 	 
H 	 -35.1347 	 13.2504 	 -4.60875 	 
H 	 -34.4092 	 14.2781 	 -6.0038 	 
H 	 -38.3433 	 11.9541 	 -11.5544 	 
H 	 -41.7334 	 14.6881 	 -4.38235 	 
