34

S 	 -128.261 	 57.8857 	 -58.6106 	 
C 	 -128.47 	 58.1677 	 -60.3489 	 
C 	 -128.976 	 57.0422 	 -60.9266 	 
C 	 -129.436 	 56.0817 	 -60.0275 	 
C 	 -129.22 	 56.3711 	 -58.7025 	 
H 	 -129.825 	 55.1128 	 -60.2501 	 
C 	 -129.099 	 56.9503 	 -62.4453 	 
H 	 -129.527 	 57.8417 	 -62.7784 	 
H 	 -129.876 	 56.2203 	 -62.6848 	 
C 	 -127.78 	 56.6252 	 -63.2265 	 
H 	 -127.42 	 55.6302 	 -62.9643 	 
H 	 -128.105 	 56.5781 	 -64.2749 	 
C 	 -126.666 	 57.6939 	 -63.1045 	 
H 	 -125.983 	 57.6634 	 -63.9261 	 
H 	 -127.016 	 58.7285 	 -63.0009 	 
H 	 -126.089 	 57.6021 	 -62.1846 	 
S 	 -129.098 	 53.6705 	 -57.7697 	 
C 	 -129.466 	 53.3079 	 -56.0992 	 
C 	 -129.895 	 54.4388 	 -55.43 	 
C 	 -129.8 	 55.6698 	 -56.2404 	 
C 	 -129.368 	 55.445 	 -57.5499 	 
H 	 -130.198 	 54.387 	 -54.3933 	 
C 	 -130.351 	 57.0647 	 -55.84 	 
H 	 -130.502 	 57.6473 	 -56.7543 	 
H 	 -129.415 	 57.4316 	 -55.4173 	 
C 	 -131.608 	 57.0783 	 -54.8934 	 
H 	 -131.456 	 56.5648 	 -53.9394 	 
H 	 -132.458 	 56.5302 	 -55.4445 	 
C 	 -132.039 	 58.4306 	 -54.4384 	 
H 	 -132.05 	 59.2985 	 -55.1096 	 
H 	 -131.44 	 58.7005 	 -53.5596 	 
H 	 -133.026 	 58.3037 	 -54.084 	 
H 	 -128.155 	 58.9291 	 -61.0008 	 
H 	 -129.452 	 52.2674 	 -55.6719 	 
