34

S 	 -45.0453 	 10.3242 	 26.4899 	 
C 	 -43.5917 	 11.1564 	 26.0122 	 
C 	 -43.8435 	 12.0971 	 25.0402 	 
C 	 -45.2259 	 12.1323 	 24.668 	 
C 	 -46.0347 	 11.22 	 25.3786 	 
H 	 -45.6628 	 12.7472 	 23.8522 	 
C 	 -42.8659 	 13.1825 	 24.6184 	 
H 	 -41.874 	 12.8984 	 25.064 	 
H 	 -43.0888 	 14.1242 	 25.0904 	 
C 	 -42.6984 	 13.3514 	 23.0964 	 
H 	 -43.6318 	 13.7175 	 22.6148 	 
H 	 -41.9713 	 14.0959 	 22.9571 	 
C 	 -42.1966 	 12.1152 	 22.4167 	 
H 	 -43.0595 	 11.492 	 22.1246 	 
H 	 -41.7339 	 12.3837 	 21.4815 	 
H 	 -41.4927 	 11.4821 	 22.9626 	 
S 	 -47.7452 	 9.57293 	 23.9118 	 
C 	 -49.3925 	 9.72359 	 23.9873 	 
C 	 -49.7843 	 10.7204 	 24.8804 	 
C 	 -48.6792 	 11.3763 	 25.5343 	 
C 	 -47.4826 	 10.8455 	 25.1204 	 
H 	 -50.7999 	 10.7763 	 24.8827 	 
C 	 -48.9729 	 12.6111 	 26.3547 	 
H 	 -50.0776 	 12.8232 	 26.4105 	 
H 	 -48.706 	 13.5333 	 25.827 	 
C 	 -48.2002 	 12.6094 	 27.7211 	 
H 	 -48.5191 	 13.5624 	 28.2147 	 
H 	 -47.0994 	 12.6327 	 27.4709 	 
C 	 -48.535 	 11.4387 	 28.6376 	 
H 	 -47.825 	 11.4128 	 29.4103 	 
H 	 -48.4285 	 10.4703 	 28.1389 	 
H 	 -49.5695 	 11.4188 	 28.9238 	 
H 	 -42.6505 	 10.9983 	 26.4896 	 
H 	 -50.196 	 9.21104 	 23.4411 	 
