34

S 	 -49.2294 	 7.72312 	 -21.6764 	 
C 	 -49.7295 	 8.88545 	 -20.4008 	 
C 	 -48.8502 	 9.91874 	 -20.3707 	 
C 	 -47.6872 	 9.73745 	 -21.1508 	 
C 	 -47.7797 	 8.66792 	 -22.0294 	 
H 	 -46.8142 	 10.3842 	 -21.247 	 
C 	 -48.9049 	 11.0588 	 -19.3462 	 
H 	 -49.6865 	 10.8379 	 -18.5274 	 
H 	 -49.3083 	 11.9064 	 -19.9008 	 
C 	 -47.5551 	 11.6842 	 -18.8361 	 
H 	 -46.9268 	 11.9365 	 -19.6801 	 
H 	 -47.6802 	 12.6265 	 -18.256 	 
C 	 -46.8247 	 10.7025 	 -17.9089 	 
H 	 -47.4306 	 10.3972 	 -17.0717 	 
H 	 -46.492 	 9.79057 	 -18.4987 	 
H 	 -45.931 	 11.2476 	 -17.5918 	 
S 	 -47.5667 	 8.04841 	 -24.7186 	 
C 	 -46.0327 	 7.51253 	 -25.2867 	 
C 	 -45.0251 	 7.8877 	 -24.4383 	 
C 	 -45.5091 	 8.49119 	 -23.2025 	 
C 	 -46.8772 	 8.37124 	 -23.1373 	 
H 	 -43.9977 	 7.79067 	 -24.6724 	 
C 	 -44.5801 	 8.93012 	 -22.1029 	 
H 	 -43.7327 	 8.23664 	 -21.9971 	 
H 	 -45.1614 	 8.78926 	 -21.2017 	 
C 	 -44.0907 	 10.3566 	 -22.2467 	 
H 	 -44.8402 	 11.1461 	 -22.222 	 
H 	 -43.8083 	 10.3836 	 -23.2966 	 
C 	 -42.9868 	 10.5576 	 -21.2145 	 
H 	 -42.4555 	 11.5591 	 -21.3324 	 
H 	 -42.2848 	 9.71729 	 -21.042 	 
H 	 -43.4643 	 10.6217 	 -20.2359 	 
H 	 -50.7469 	 9.08537 	 -20.264 	 
H 	 -45.8452 	 6.93793 	 -26.2189 	 
