34

S 	 -38.4785 	 -48.171 	 -74.8248 	 
C 	 -36.8841 	 -48.828 	 -75.0534 	 
C 	 -35.9484 	 -47.9024 	 -75.54 	 
C 	 -36.5779 	 -46.6285 	 -75.7863 	 
C 	 -37.9298 	 -46.5979 	 -75.5112 	 
H 	 -36.0668 	 -45.7512 	 -76.2062 	 
C 	 -34.422 	 -48.0472 	 -75.7221 	 
H 	 -34.2206 	 -47.7458 	 -76.7527 	 
H 	 -34.1508 	 -49.1245 	 -75.5439 	 
C 	 -33.6152 	 -47.1094 	 -74.877 	 
H 	 -32.5743 	 -46.9144 	 -75.1102 	 
H 	 -34.0495 	 -46.0319 	 -74.9524 	 
C 	 -33.6006 	 -47.4373 	 -73.3393 	 
H 	 -34.5968 	 -47.674 	 -73.0444 	 
H 	 -32.963 	 -48.2805 	 -73.1533 	 
H 	 -33.1733 	 -46.613 	 -72.7727 	 
S 	 -39.1965 	 -44.6712 	 -74.0148 	 
C 	 -39.6865 	 -43.267 	 -74.7897 	 
C 	 -39.3766 	 -43.2597 	 -76.1046 	 
C 	 -38.797 	 -44.4817 	 -76.5105 	 
C 	 -38.6776 	 -45.3947 	 -75.5084 	 
H 	 -39.6425 	 -42.3481 	 -76.6162 	 
C 	 -38.4164 	 -44.7558 	 -77.9631 	 
H 	 -37.5099 	 -45.3007 	 -78.0383 	 
H 	 -38.2248 	 -43.8091 	 -78.4504 	 
C 	 -39.4373 	 -45.5035 	 -78.7426 	 
H 	 -40.3582 	 -44.9206 	 -78.531 	 
H 	 -39.7131 	 -46.4153 	 -78.1828 	 
C 	 -39.2175 	 -45.4854 	 -80.2722 	 
H 	 -40.0621 	 -46.0787 	 -80.7383 	 
H 	 -38.2611 	 -45.9478 	 -80.5091 	 
H 	 -39.2809 	 -44.4601 	 -80.699 	 
H 	 -36.6876 	 -49.825 	 -74.8599 	 
H 	 -39.9973 	 -42.4469 	 -74.1658 	 
