34

S 	 -61.8844 	 11.9503 	 -106.201 	 
C 	 -63.4481 	 12.631 	 -105.982 	 
C 	 -63.5644 	 13.2834 	 -104.822 	 
C 	 -62.3388 	 13.1656 	 -104.091 	 
C 	 -61.3711 	 12.4242 	 -104.679 	 
H 	 -62.3366 	 13.5132 	 -103.045 	 
C 	 -64.7003 	 14.1855 	 -104.389 	 
H 	 -64.3074 	 14.7896 	 -103.539 	 
H 	 -65.6143 	 13.594 	 -104.08 	 
C 	 -64.9786 	 15.256 	 -105.373 	 
H 	 -63.9349 	 15.6772 	 -105.611 	 
H 	 -65.4306 	 14.8663 	 -106.309 	 
C 	 -65.7777 	 16.4423 	 -104.833 	 
H 	 -64.9843 	 17.0698 	 -104.462 	 
H 	 -66.1924 	 17.01 	 -105.643 	 
H 	 -66.5362 	 16.2499 	 -104.183 	 
S 	 -59.461 	 10.4448 	 -104.347 	 
C 	 -57.8958 	 10.7171 	 -103.521 	 
C 	 -57.8259 	 12.0692 	 -103.303 	 
C 	 -59.0143 	 12.8145 	 -103.611 	 
C 	 -60.068 	 12.0199 	 -104.109 	 
H 	 -56.951 	 12.4585 	 -102.88 	 
C 	 -59.1084 	 14.3462 	 -103.4 	 
H 	 -59.8561 	 14.7585 	 -104.131 	 
H 	 -58.1092 	 14.6812 	 -103.678 	 
C 	 -59.4014 	 14.7777 	 -101.993 	 
H 	 -58.5839 	 14.486 	 -101.286 	 
H 	 -60.2957 	 14.2944 	 -101.528 	 
C 	 -59.6373 	 16.3458 	 -101.851 	 
H 	 -58.6674 	 16.7691 	 -102.069 	 
H 	 -59.8939 	 16.62 	 -100.824 	 
H 	 -60.4843 	 16.7675 	 -102.501 	 
H 	 -64.2416 	 12.5344 	 -106.612 	 
H 	 -57.0991 	 9.9663 	 -103.36 	 
