34

S 	 -2.45311 	 -24.6044 	 -114.867 	 
C 	 -1.68734 	 -26.0385 	 -115.27 	 
C 	 -0.413836 	 -25.7599 	 -115.87 	 
C 	 -0.0893276 	 -24.3659 	 -115.823 	 
C 	 -1.13183 	 -23.5683 	 -115.407 	 
H 	 0.776086 	 -23.9733 	 -116.246 	 
C 	 0.551705 	 -26.7525 	 -116.566 	 
H 	 0.830296 	 -27.3143 	 -115.708 	 
H 	 1.38303 	 -26.2976 	 -116.997 	 
C 	 0.0414814 	 -27.6319 	 -117.63 	 
H 	 -0.855513 	 -28.2328 	 -117.303 	 
H 	 -0.243256 	 -26.9627 	 -118.461 	 
C 	 1.05299 	 -28.57 	 -118.206 	 
H 	 1.46786 	 -29.3393 	 -117.575 	 
H 	 0.566711 	 -29.1022 	 -118.972 	 
H 	 1.94507 	 -28.1028 	 -118.655 	 
S 	 -2.49468 	 -21.3601 	 -116.291 	 
C 	 -2.09947 	 -19.7469 	 -115.745 	 
C 	 -0.995386 	 -19.8375 	 -114.954 	 
C 	 -0.375153 	 -21.1084 	 -114.856 	 
C 	 -1.19554 	 -22.0996 	 -115.389 	 
H 	 -0.738718 	 -18.931 	 -114.459 	 
C 	 0.868628 	 -21.2479 	 -114.035 	 
H 	 1.02715 	 -20.2855 	 -113.631 	 
H 	 1.66912 	 -21.4878 	 -114.705 	 
C 	 0.935931 	 -22.2928 	 -112.859 	 
H 	 1.915 	 -22.1976 	 -112.482 	 
H 	 0.85246 	 -23.3106 	 -113.225 	 
C 	 -0.180431 	 -21.9921 	 -111.805 	 
H 	 -0.15392 	 -22.6208 	 -110.982 	 
H 	 -1.16085 	 -22.2081 	 -112.244 	 
H 	 -0.107224 	 -20.9325 	 -111.574 	 
H 	 -2.06707 	 -27.0702 	 -115.107 	 
H 	 -2.61148 	 -18.7649 	 -115.908 	 
