34

S 	 -122.952 	 54.9235 	 -30.1392 	 
C 	 -124.055 	 53.5343 	 -30.1746 	 
C 	 -123.683 	 52.685 	 -31.2513 	 
C 	 -122.69 	 53.2803 	 -32.1354 	 
C 	 -122.166 	 54.4748 	 -31.6677 	 
H 	 -122.311 	 52.8822 	 -33.1051 	 
C 	 -124.476 	 51.4701 	 -31.7416 	 
H 	 -124.574 	 50.8234 	 -30.8577 	 
H 	 -123.855 	 50.9693 	 -32.4406 	 
C 	 -125.823 	 51.7496 	 -32.4329 	 
H 	 -125.683 	 52.2469 	 -33.3851 	 
H 	 -126.249 	 50.7549 	 -32.7173 	 
C 	 -126.786 	 52.5572 	 -31.6424 	 
H 	 -127.727 	 52.5951 	 -32.1887 	 
H 	 -127.039 	 52.0279 	 -30.7504 	 
H 	 -126.44 	 53.5769 	 -31.4245 	 
S 	 -119.471 	 54.832 	 -31.8854 	 
C 	 -118.798 	 55.9998 	 -32.9728 	 
C 	 -119.763 	 56.964 	 -33.2334 	 
C 	 -121.048 	 56.5946 	 -32.7488 	 
C 	 -121.107 	 55.31 	 -32.2349 	 
H 	 -119.355 	 57.835 	 -33.7762 	 
C 	 -122.243 	 57.3921 	 -33.0829 	 
H 	 -122.921 	 56.7734 	 -33.6522 	 
H 	 -121.976 	 58.1522 	 -33.7918 	 
C 	 -122.968 	 58.0802 	 -31.885 	 
H 	 -123.496 	 57.2169 	 -31.3951 	 
H 	 -123.592 	 58.8455 	 -32.3383 	 
C 	 -121.96 	 58.7473 	 -30.9688 	 
H 	 -122.323 	 59.4648 	 -30.3199 	 
H 	 -121.168 	 59.2819 	 -31.4136 	 
H 	 -121.61 	 57.9866 	 -30.3526 	 
H 	 -124.89 	 53.4104 	 -29.489 	 
H 	 -117.696 	 56.1229 	 -33.1586 	 
