34

S 	 43.2941 	 -16.4644 	 -112.668 	 
C 	 43.8337 	 -15.9819 	 -111.024 	 
C 	 43.1742 	 -16.737 	 -110.103 	 
C 	 42.4107 	 -17.8443 	 -110.673 	 
C 	 42.3191 	 -17.8341 	 -112.02 	 
H 	 42.0471 	 -18.7061 	 -110.142 	 
C 	 43.298 	 -16.5242 	 -108.593 	 
H 	 43.7551 	 -15.4528 	 -108.413 	 
H 	 43.9714 	 -17.2571 	 -108.272 	 
C 	 41.9165 	 -16.6772 	 -107.884 	 
H 	 41.1828 	 -16.0126 	 -108.367 	 
H 	 41.5876 	 -17.6763 	 -108.073 	 
C 	 42.0324 	 -16.3616 	 -106.36 	 
H 	 42.1952 	 -15.2869 	 -106.162 	 
H 	 41.1078 	 -16.591 	 -105.852 	 
H 	 42.8516 	 -16.9343 	 -105.963 	 
S 	 42.7922 	 -19.625 	 -114.088 	 
C 	 41.424 	 -20.3681 	 -114.788 	 
C 	 40.266 	 -20.161 	 -114.062 	 
C 	 40.4497 	 -19.3941 	 -112.889 	 
C 	 41.7486 	 -18.8537 	 -112.909 	 
H 	 39.3548 	 -20.6935 	 -114.378 	 
C 	 39.2475 	 -19.1723 	 -112.011 	 
H 	 38.4151 	 -19.1917 	 -112.695 	 
H 	 39.2127 	 -18.1171 	 -111.642 	 
C 	 38.9939 	 -20.2182 	 -110.871 	 
H 	 39.8829 	 -20.0443 	 -110.208 	 
H 	 39.1206 	 -21.1834 	 -111.324 	 
C 	 37.7593 	 -19.8811 	 -110.016 	 
H 	 37.572 	 -20.6656 	 -109.339 	 
H 	 36.8139 	 -19.7313 	 -110.579 	 
H 	 37.8574 	 -18.996 	 -109.374 	 
H 	 44.5918 	 -15.2817 	 -110.774 	 
H 	 41.5113 	 -21.0556 	 -115.644 	 
