34

S 	 -15.192 	 -31.9679 	 -106.343 	 
C 	 -14.845 	 -30.8717 	 -104.974 	 
C 	 -14.4575 	 -31.6448 	 -103.906 	 
C 	 -14.3166 	 -33.0357 	 -104.183 	 
C 	 -14.7288 	 -33.4105 	 -105.43 	 
H 	 -13.9662 	 -33.7539 	 -103.503 	 
C 	 -14.2253 	 -31.1044 	 -102.516 	 
H 	 -15.2215 	 -30.973 	 -102.117 	 
H 	 -13.9815 	 -30.0417 	 -102.529 	 
C 	 -13.2171 	 -31.7509 	 -101.487 	 
H 	 -13.1971 	 -31.1281 	 -100.633 	 
H 	 -13.6554 	 -32.6979 	 -101.347 	 
C 	 -11.8021 	 -31.9134 	 -102.088 	 
H 	 -10.9875 	 -31.9396 	 -101.271 	 
H 	 -11.6098 	 -32.7773 	 -102.763 	 
H 	 -11.638 	 -31.0118 	 -102.771 	 
S 	 -16.2931 	 -35.2284 	 -106.623 	 
C 	 -15.7321 	 -36.8804 	 -106.865 	 
C 	 -14.4046 	 -37.0392 	 -106.52 	 
C 	 -13.8796 	 -35.8749 	 -105.839 	 
C 	 -14.791 	 -34.73 	 -105.961 	 
H 	 -13.8827 	 -37.9473 	 -106.696 	 
C 	 -12.4298 	 -35.8388 	 -105.26 	 
H 	 -12.4148 	 -36.6957 	 -104.578 	 
H 	 -12.2564 	 -34.9727 	 -104.621 	 
C 	 -11.2945 	 -36.0269 	 -106.281 	 
H 	 -11.4489 	 -36.8922 	 -106.81 	 
H 	 -10.3457 	 -36.3016 	 -105.889 	 
C 	 -11.1468 	 -34.8908 	 -107.292 	 
H 	 -12.1767 	 -34.6565 	 -107.759 	 
H 	 -10.5255 	 -35.1307 	 -108.162 	 
H 	 -10.8611 	 -33.9666 	 -106.854 	 
H 	 -14.8972 	 -29.7968 	 -105.018 	 
H 	 -16.3439 	 -37.8007 	 -107.108 	 
