34

S 	 -105.143 	 23.26 	 -110.031 	 
C 	 -105.21 	 21.4876 	 -110.48 	 
C 	 -105.881 	 21.3223 	 -111.664 	 
C 	 -106.442 	 22.5432 	 -112.166 	 
C 	 -106.216 	 23.6971 	 -111.412 	 
H 	 -107.146 	 22.5883 	 -112.983 	 
C 	 -106.073 	 19.9939 	 -112.401 	 
H 	 -107.073 	 19.9202 	 -112.825 	 
H 	 -106.054 	 19.287 	 -111.588 	 
C 	 -105.048 	 19.4927 	 -113.462 	 
H 	 -105.54 	 18.7007 	 -114.038 	 
H 	 -104.742 	 20.2672 	 -114.195 	 
C 	 -103.861 	 18.8879 	 -112.776 	 
H 	 -103.372 	 18.1695 	 -113.464 	 
H 	 -103.228 	 19.7111 	 -112.538 	 
H 	 -104.155 	 18.3183 	 -111.856 	 
S 	 -106.758 	 26.1463 	 -110.362 	 
C 	 -107.738 	 27.3279 	 -111.238 	 
C 	 -107.804 	 26.9921 	 -112.582 	 
C 	 -107.305 	 25.6921 	 -112.831 	 
C 	 -106.804 	 25.0711 	 -111.669 	 
H 	 -108.144 	 27.8321 	 -113.297 	 
C 	 -107.132 	 25.1393 	 -114.291 	 
H 	 -107.62 	 24.1741 	 -114.206 	 
H 	 -106.099 	 25.084 	 -114.623 	 
C 	 -107.802 	 26.0283 	 -115.386 	 
H 	 -107.225 	 26.9619 	 -115.57 	 
H 	 -108.803 	 26.3351 	 -115.203 	 
C 	 -107.742 	 25.3027 	 -116.704 	 
H 	 -108.546 	 25.5355 	 -117.309 	 
H 	 -107.825 	 24.2424 	 -116.588 	 
H 	 -106.79 	 25.4905 	 -117.244 	 
H 	 -104.734 	 20.6247 	 -109.939 	 
H 	 -108.089 	 28.1829 	 -110.675 	 
