34

S 	 -42.869 	 -0.688123 	 -23.3453 	 
C 	 -42.0654 	 0.36937 	 -22.2357 	 
C 	 -41.3741 	 -0.322344 	 -21.2438 	 
C 	 -41.3131 	 -1.69376 	 -21.5672 	 
C 	 -42.1302 	 -2.07597 	 -22.5766 	 
H 	 -40.8966 	 -2.44166 	 -20.8908 	 
C 	 -40.3942 	 0.329239 	 -20.3087 	 
H 	 -40.3671 	 1.37859 	 -20.4815 	 
H 	 -39.3274 	 0.0041551 	 -20.4745 	 
C 	 -40.7313 	 0.114329 	 -18.8048 	 
H 	 -40.0721 	 0.688815 	 -18.2398 	 
H 	 -41.6861 	 0.595515 	 -18.4821 	 
C 	 -40.4593 	 -1.2873 	 -18.2165 	 
H 	 -41.314 	 -1.95067 	 -18.3929 	 
H 	 -39.6165 	 -1.75439 	 -18.7249 	 
H 	 -40.3655 	 -1.2472 	 -17.1011 	 
S 	 -44.0963 	 -3.77576 	 -23.2935 	 
C 	 -43.7915 	 -5.40622 	 -23.9264 	 
C 	 -42.4599 	 -5.66913 	 -23.758 	 
C 	 -41.7092 	 -4.56503 	 -23.2444 	 
C 	 -42.4293 	 -3.47381 	 -22.9411 	 
H 	 -42.1053 	 -6.62123 	 -24.0311 	 
C 	 -40.2285 	 -4.58289 	 -23.3157 	 
H 	 -39.8607 	 -5.36675 	 -22.651 	 
H 	 -39.839 	 -3.71361 	 -22.8221 	 
C 	 -39.5203 	 -4.69828 	 -24.6793 	 
H 	 -39.7324 	 -5.7236 	 -25.0083 	 
H 	 -38.4718 	 -4.51921 	 -24.6619 	 
C 	 -40.0302 	 -3.65592 	 -25.6729 	 
H 	 -39.7119 	 -2.66065 	 -25.3801 	 
H 	 -41.1407 	 -3.68076 	 -25.8546 	 
H 	 -39.5163 	 -3.81858 	 -26.6282 	 
H 	 -42.0284 	 1.43182 	 -22.4448 	 
H 	 -44.4464 	 -6.05656 	 -24.4977 	 
