34

S 	 -124.91 	 62.6272 	 -51.8076 	 
C 	 -124.166 	 64.0304 	 -51.125 	 
C 	 -125.063 	 64.9974 	 -50.8075 	 
C 	 -126.368 	 64.7013 	 -51.2828 	 
C 	 -126.517 	 63.4251 	 -51.8479 	 
H 	 -127.212 	 65.3524 	 -51.2163 	 
C 	 -124.614 	 66.3737 	 -50.2664 	 
H 	 -123.594 	 66.2462 	 -50.0012 	 
H 	 -125.138 	 66.5838 	 -49.3261 	 
C 	 -124.834 	 67.5405 	 -51.2979 	 
H 	 -125.884 	 67.6686 	 -51.5375 	 
H 	 -124.531 	 68.4198 	 -50.885 	 
C 	 -124.086 	 67.5598 	 -52.567 	 
H 	 -124.314 	 66.6336 	 -53.159 	 
H 	 -124.345 	 68.341 	 -53.1491 	 
H 	 -123.028 	 67.5681 	 -52.4522 	 
S 	 -128.559 	 63.5092 	 -53.6403 	 
C 	 -129.729 	 62.2803 	 -53.5345 	 
C 	 -129.669 	 61.5108 	 -52.3712 	 
C 	 -128.536 	 61.8842 	 -51.6129 	 
C 	 -127.762 	 62.7783 	 -52.238 	 
H 	 -130.365 	 60.7911 	 -52.0319 	 
C 	 -128.295 	 61.3527 	 -50.2168 	 
H 	 -129.278 	 61.3718 	 -49.7181 	 
H 	 -127.727 	 62.1282 	 -49.7024 	 
C 	 -127.849 	 59.9289 	 -50.0914 	 
H 	 -126.914 	 59.8401 	 -50.5722 	 
H 	 -128.403 	 59.3276 	 -50.7352 	 
C 	 -127.753 	 59.4314 	 -48.632 	 
H 	 -127.538 	 58.3596 	 -48.4999 	 
H 	 -128.62 	 59.6068 	 -48.0825 	 
H 	 -126.894 	 59.9412 	 -48.1755 	 
H 	 -123.101 	 64.0071 	 -50.9153 	 
H 	 -130.65 	 62.2663 	 -54.1773 	 
