34

S 	 -80.9041 	 -15.346 	 -49.8064 	 
C 	 -82.3122 	 -16.1642 	 -50.4333 	 
C 	 -82.7768 	 -15.5692 	 -51.6089 	 
C 	 -81.9475 	 -14.4784 	 -51.9859 	 
C 	 -80.7522 	 -14.3918 	 -51.3094 	 
H 	 -81.9684 	 -14.1504 	 -52.9776 	 
C 	 -83.8914 	 -16.0452 	 -52.3949 	 
H 	 -84.7851 	 -15.472 	 -52.1845 	 
H 	 -84.1994 	 -16.9876 	 -52.0109 	 
C 	 -83.5723 	 -16.2856 	 -53.8995 	 
H 	 -84.5562 	 -16.4429 	 -54.4415 	 
H 	 -83.3027 	 -15.3325 	 -54.3801 	 
C 	 -82.6955 	 -17.5047 	 -54.3097 	 
H 	 -83.1705 	 -18.447 	 -53.9776 	 
H 	 -82.6516 	 -17.5688 	 -55.3747 	 
H 	 -81.6586 	 -17.483 	 -53.9688 	 
S 	 -78.8279 	 -13.6873 	 -53.1952 	 
C 	 -77.7573 	 -12.3702 	 -52.7148 	 
C 	 -77.7445 	 -12.1223 	 -51.3394 	 
C 	 -78.8013 	 -12.8161 	 -50.7095 	 
C 	 -79.5344 	 -13.6022 	 -51.5693 	 
H 	 -76.9925 	 -11.4761 	 -50.8409 	 
C 	 -79.0765 	 -12.6963 	 -49.2152 	 
H 	 -78.8014 	 -13.6543 	 -48.8141 	 
H 	 -80.1341 	 -12.6254 	 -49.0727 	 
C 	 -78.3792 	 -11.5156 	 -48.4227 	 
H 	 -78.835 	 -10.646 	 -48.9431 	 
H 	 -77.2963 	 -11.5813 	 -48.5661 	 
C 	 -78.7671 	 -11.5406 	 -46.8717 	 
H 	 -79.7814 	 -11.8458 	 -46.4817 	 
H 	 -78.6132 	 -10.6374 	 -46.3263 	 
H 	 -78.0949 	 -12.2733 	 -46.3749 	 
H 	 -82.787 	 -16.9173 	 -49.8206 	 
H 	 -76.995 	 -11.9633 	 -53.3187 	 
