34

S 	 43.7974 	 -10.8448 	 -126.088 	 
C 	 42.154 	 -10.3936 	 -126.346 	 
C 	 41.2549 	 -11.46 	 -126.232 	 
C 	 41.957 	 -12.6603 	 -126.023 	 
C 	 43.3438 	 -12.5344 	 -125.917 	 
H 	 41.5813 	 -13.6761 	 -125.96 	 
C 	 39.7291 	 -11.3626 	 -126.442 	 
H 	 39.3472 	 -10.3848 	 -126.583 	 
H 	 39.2141 	 -11.7426 	 -125.556 	 
C 	 39.1239 	 -12.1439 	 -127.648 	 
H 	 39.2204 	 -13.187 	 -127.433 	 
H 	 38.0297 	 -12.0359 	 -127.619 	 
C 	 39.6983 	 -11.7217 	 -128.995 	 
H 	 39.4668 	 -12.4459 	 -129.779 	 
H 	 39.4065 	 -10.7766 	 -129.378 	 
H 	 40.8001 	 -11.8175 	 -128.866 	 
S 	 45.4016 	 -13.4753 	 -124.365 	 
C 	 46.1415 	 -15.0495 	 -124.738 	 
C 	 45.4679 	 -15.6843 	 -125.72 	 
C 	 44.523 	 -14.7825 	 -126.367 	 
C 	 44.3261 	 -13.5393 	 -125.696 	 
H 	 45.827 	 -16.6367 	 -126.009 	 
C 	 43.9369 	 -15.0764 	 -127.693 	 
H 	 42.9361 	 -14.6878 	 -127.698 	 
H 	 43.9022 	 -16.1627 	 -127.778 	 
C 	 44.7249 	 -14.4865 	 -128.831 	 
H 	 44.7869 	 -13.3778 	 -128.845 	 
H 	 44.1827 	 -14.7101 	 -129.719 	 
C 	 46.1724 	 -14.9175 	 -128.937 	 
H 	 46.7404 	 -14.3382 	 -129.645 	 
H 	 46.3963 	 -15.9813 	 -129.216 	 
H 	 46.6711 	 -14.754 	 -128.002 	 
H 	 41.8515 	 -9.33624 	 -126.404 	 
H 	 46.846 	 -15.5268 	 -124.13 	 
