34

S 	 -69.9394 	 9.23535 	 -73.7823 	 
C 	 -69.0859 	 10.6121 	 -74.4371 	 
C 	 -68.7562 	 11.5326 	 -73.4434 	 
C 	 -68.9205 	 10.9623 	 -72.1647 	 
C 	 -69.5108 	 9.72219 	 -72.1282 	 
H 	 -68.6529 	 11.4697 	 -71.2599 	 
C 	 -68.6115 	 13.0215 	 -73.8261 	 
H 	 -69.0603 	 13.0739 	 -74.8077 	 
H 	 -67.4943 	 13.1226 	 -73.8882 	 
C 	 -69.1557 	 14.1519 	 -72.98 	 
H 	 -68.6512 	 14.3199 	 -71.9956 	 
H 	 -68.8914 	 15.0206 	 -73.463 	 
C 	 -70.7 	 14.1816 	 -72.733 	 
H 	 -70.9962 	 15.0227 	 -72.1247 	 
H 	 -71.229 	 14.2042 	 -73.6657 	 
H 	 -71.0948 	 13.4093 	 -72.0837 	 
S 	 -71.6294 	 8.74314 	 -70.5848 	 
C 	 -71.2977 	 7.94079 	 -69.0795 	 
C 	 -69.9136 	 7.79095 	 -68.9021 	 
C 	 -69.1373 	 8.33245 	 -69.9741 	 
C 	 -69.8982 	 8.87436 	 -71.0188 	 
H 	 -69.5776 	 7.32795 	 -68.0038 	 
C 	 -67.5936 	 8.16284 	 -70.0199 	 
H 	 -67.2543 	 7.39868 	 -69.2865 	 
H 	 -67.258 	 9.13037 	 -69.637 	 
C 	 -67.0085 	 7.81739 	 -71.4348 	 
H 	 -65.9241 	 7.61048 	 -71.2509 	 
H 	 -67.0581 	 8.69253 	 -72.1454 	 
C 	 -67.5848 	 6.54796 	 -72.0107 	 
H 	 -67.4012 	 5.69962 	 -71.2521 	 
H 	 -67.0717 	 6.34274 	 -72.9042 	 
H 	 -68.6418 	 6.68626 	 -72.1999 	 
H 	 -69.168 	 10.973 	 -75.4464 	 
H 	 -72.0426 	 7.73021 	 -68.299 	 
