34

S 	 -125.244 	 65.4645 	 -50.2263 	 
C 	 -123.991 	 66.2838 	 -51.1886 	 
C 	 -124.439 	 66.5373 	 -52.4559 	 
C 	 -125.652 	 65.9255 	 -52.7178 	 
C 	 -126.225 	 65.3104 	 -51.6497 	 
H 	 -126.103 	 65.8961 	 -53.6926 	 
C 	 -123.604 	 67.2868 	 -53.4796 	 
H 	 -123.435 	 68.3137 	 -53.1336 	 
H 	 -124.288 	 67.4598 	 -54.3094 	 
C 	 -122.28 	 66.5202 	 -53.8698 	 
H 	 -121.88 	 66.3486 	 -52.8403 	 
H 	 -122.436 	 65.6377 	 -54.4755 	 
C 	 -121.485 	 67.2976 	 -54.8715 	 
H 	 -122.074 	 67.5629 	 -55.7539 	 
H 	 -121.172 	 68.2268 	 -54.3708 	 
H 	 -120.641 	 66.7576 	 -55.143 	 
S 	 -127.422 	 62.761 	 -51.6283 	 
C 	 -129.087 	 62.5866 	 -52.0785 	 
C 	 -129.648 	 63.8118 	 -52.1685 	 
C 	 -128.755 	 64.9129 	 -51.9761 	 
C 	 -127.47 	 64.528 	 -51.6577 	 
H 	 -130.67 	 64.0005 	 -52.4692 	 
C 	 -129.229 	 66.3285 	 -52.1658 	 
H 	 -130.278 	 66.531 	 -52.013 	 
H 	 -129.097 	 66.538 	 -53.1426 	 
C 	 -128.696 	 67.4468 	 -51.2307 	 
H 	 -127.616 	 67.4877 	 -51.2405 	 
H 	 -129.143 	 67.2212 	 -50.2588 	 
C 	 -129.224 	 68.7647 	 -51.7101 	 
H 	 -128.659 	 69.0991 	 -52.6444 	 
H 	 -128.945 	 69.5412 	 -50.9573 	 
H 	 -130.314 	 68.8313 	 -51.8774 	 
H 	 -123.021 	 66.6087 	 -50.856 	 
H 	 -129.564 	 61.6813 	 -52.3567 	 
