34

S 	 -120.072 	 53.5669 	 -30.5112 	 
C 	 -121.336 	 52.5084 	 -31.2953 	 
C 	 -122.223 	 53.1694 	 -32.1289 	 
C 	 -121.684 	 54.4712 	 -32.3601 	 
C 	 -120.545 	 54.8175 	 -31.6599 	 
H 	 -122.15 	 55.2156 	 -32.978 	 
C 	 -123.56 	 52.677 	 -32.6115 	 
H 	 -123.948 	 51.8709 	 -31.9159 	 
H 	 -123.422 	 52.3912 	 -33.6154 	 
C 	 -124.747 	 53.7842 	 -32.7362 	 
H 	 -124.598 	 54.5036 	 -33.5386 	 
H 	 -125.591 	 53.133 	 -33.1 	 
C 	 -125.277 	 54.4484 	 -31.4224 	 
H 	 -125.905 	 55.349 	 -31.5418 	 
H 	 -125.993 	 53.7714 	 -30.9554 	 
H 	 -124.389 	 54.6203 	 -30.8227 	 
S 	 -118.011 	 56.0438 	 -31.5246 	 
C 	 -117.79 	 57.7415 	 -31.9383 	 
C 	 -118.994 	 58.2688 	 -32.2528 	 
C 	 -120.073 	 57.3316 	 -32.2366 	 
C 	 -119.76 	 56.02 	 -31.878 	 
H 	 -119.066 	 59.3901 	 -32.459 	 
C 	 -121.425 	 57.8802 	 -32.6176 	 
H 	 -121.719 	 57.3015 	 -33.6127 	 
H 	 -121.432 	 58.9612 	 -32.8395 	 
C 	 -122.567 	 57.8333 	 -31.5694 	 
H 	 -122.621 	 56.8105 	 -31.2663 	 
H 	 -123.521 	 58.018 	 -32.1586 	 
C 	 -122.472 	 58.7471 	 -30.3742 	 
H 	 -123.424 	 58.7235 	 -29.9018 	 
H 	 -122.151 	 59.7505 	 -30.5572 	 
H 	 -121.798 	 58.4182 	 -29.6285 	 
H 	 -121.52 	 51.4912 	 -30.8472 	 
H 	 -116.864 	 58.217 	 -31.9137 	 
