34

S 	 -131.085 	 62.0732 	 -58.26 	 
C 	 -132.668 	 61.4401 	 -58.7086 	 
C 	 -132.582 	 60.8095 	 -59.9198 	 
C 	 -131.233 	 60.6638 	 -60.3917 	 
C 	 -130.317 	 61.1981 	 -59.5566 	 
H 	 -130.926 	 60.3157 	 -61.367 	 
C 	 -133.735 	 60.1658 	 -60.7423 	 
H 	 -133.312 	 59.6704 	 -61.5792 	 
H 	 -134.406 	 61.0088 	 -60.9629 	 
C 	 -134.593 	 59.1423 	 -59.944 	 
H 	 -133.993 	 58.3798 	 -59.4762 	 
H 	 -134.955 	 59.7071 	 -59.0935 	 
C 	 -135.737 	 58.431 	 -60.6705 	 
H 	 -136.326 	 57.8546 	 -59.9179 	 
H 	 -136.538 	 59.0631 	 -61.145 	 
H 	 -135.41 	 57.7497 	 -61.4579 	 
S 	 -128.387 	 61.5386 	 -61.4197 	 
C 	 -126.841 	 62.2061 	 -60.9091 	 
C 	 -126.636 	 62.0078 	 -59.5602 	 
C 	 -127.824 	 61.5344 	 -58.8787 	 
C 	 -128.903 	 61.4145 	 -59.7623 	 
H 	 -125.686 	 62.3343 	 -59.1011 	 
C 	 -127.687 	 61.1285 	 -57.3754 	 
H 	 -128.612 	 61.3037 	 -56.891 	 
H 	 -127.032 	 61.8121 	 -56.9329 	 
C 	 -127.174 	 59.7416 	 -57.0559 	 
H 	 -126.228 	 59.6905 	 -57.5279 	 
H 	 -127.795 	 59.0218 	 -57.4858 	 
C 	 -127.08 	 59.5192 	 -55.5832 	 
H 	 -126.631 	 58.6081 	 -55.1829 	 
H 	 -128.152 	 59.5123 	 -55.3332 	 
H 	 -126.624 	 60.3091 	 -54.9667 	 
H 	 -133.574 	 61.6342 	 -58.1248 	 
H 	 -126.022 	 62.5207 	 -61.572 	 
