34

S 	 35.3301 	 -5.73761 	 -119.935 	 
C 	 35.4076 	 -7.13675 	 -120.963 	 
C 	 36.6735 	 -7.25515 	 -121.513 	 
C 	 37.5366 	 -6.12785 	 -121.205 	 
C 	 36.9203 	 -5.1723 	 -120.418 	 
H 	 38.6045 	 -5.91705 	 -121.423 	 
C 	 37.1281 	 -8.33378 	 -122.493 	 
H 	 36.4261 	 -9.16901 	 -122.475 	 
H 	 38.113 	 -8.66795 	 -122.187 	 
C 	 37.2758 	 -7.75526 	 -123.863 	 
H 	 36.3484 	 -7.28857 	 -124.166 	 
H 	 37.9777 	 -6.94019 	 -123.878 	 
C 	 37.6463 	 -8.78535 	 -124.963 	 
H 	 38.5886 	 -9.31559 	 -124.783 	 
H 	 37.0144 	 -9.62898 	 -124.961 	 
H 	 37.7475 	 -8.33695 	 -125.987 	 
S 	 39.183 	 -3.80292 	 -119.742 	 
C 	 39.1047 	 -2.15282 	 -119.212 	 
C 	 37.8302 	 -1.63058 	 -119.424 	 
C 	 36.8481 	 -2.62265 	 -119.814 	 
C 	 37.4594 	 -3.87212 	 -120.087 	 
H 	 37.5923 	 -0.594757 	 -119.266 	 
C 	 35.3734 	 -2.26938 	 -120.01 	 
H 	 34.9104 	 -2.67676 	 -120.908 	 
H 	 35.4678 	 -1.20512 	 -120.254 	 
C 	 34.4095 	 -2.37837 	 -118.806 	 
H 	 34.7172 	 -1.71697 	 -117.974 	 
H 	 34.4265 	 -3.36388 	 -118.349 	 
C 	 32.9771 	 -2.13077 	 -119.06 	 
H 	 32.5051 	 -2.06072 	 -118.074 	 
H 	 32.4741 	 -2.83323 	 -119.609 	 
H 	 32.7647 	 -1.16607 	 -119.502 	 
H 	 34.6833 	 -7.85381 	 -121.132 	 
H 	 40.0558 	 -1.65555 	 -118.94 	 
