34

S 	 -106.667 	 65.8939 	 -11.6319 	 
C 	 -105.708 	 67.3852 	 -11.9076 	 
C 	 -104.348 	 67.1214 	 -11.5784 	 
C 	 -104.192 	 65.8868 	 -10.8701 	 
C 	 -105.301 	 65.0925 	 -10.8426 	 
H 	 -103.23 	 65.6621 	 -10.4617 	 
C 	 -103.265 	 68.159 	 -11.7531 	 
H 	 -102.391 	 67.8792 	 -11.1784 	 
H 	 -103.609 	 69.0928 	 -11.3304 	 
C 	 -102.952 	 68.3196 	 -13.2543 	 
H 	 -102.546 	 67.3497 	 -13.561 	 
H 	 -103.827 	 68.5307 	 -13.9047 	 
C 	 -102.013 	 69.5175 	 -13.6528 	 
H 	 -102.069 	 69.7931 	 -14.7217 	 
H 	 -102.381 	 70.3987 	 -13.184 	 
H 	 -100.963 	 69.5181 	 -13.3888 	 
S 	 -105.379 	 62.4283 	 -11.1437 	 
C 	 -105.095 	 61.3867 	 -9.82663 	 
C 	 -104.926 	 62.1248 	 -8.6785 	 
C 	 -105.101 	 63.5345 	 -8.80815 	 
C 	 -105.375 	 63.8583 	 -10.129 	 
H 	 -104.861 	 61.5573 	 -7.75914 	 
C 	 -104.776 	 64.4866 	 -7.64217 	 
H 	 -104.078 	 65.2858 	 -7.91819 	 
H 	 -104.072 	 63.863 	 -7.03541 	 
C 	 -105.867 	 64.791 	 -6.65084 	 
H 	 -105.372 	 65.0391 	 -5.79652 	 
H 	 -106.436 	 63.9485 	 -6.39362 	 
C 	 -106.784 	 65.9164 	 -6.98411 	 
H 	 -107.502 	 65.5927 	 -7.70084 	 
H 	 -106.142 	 66.8082 	 -7.25861 	 
H 	 -107.342 	 66.3205 	 -6.13583 	 
H 	 -106.073 	 68.2478 	 -12.413 	 
H 	 -105.23 	 60.4147 	 -9.89802 	 
