34

S 	 -100.566 	 -0.0928114 	 -105.935 	 
C 	 -99.4411 	 1.17671 	 -105.537 	 
C 	 -100.086 	 2.23944 	 -105.023 	 
C 	 -101.473 	 2.16811 	 -105.258 	 
C 	 -101.946 	 1.0025 	 -105.7 	 
H 	 -102.192 	 2.9766 	 -105.046 	 
C 	 -99.4681 	 3.57176 	 -104.476 	 
H 	 -99.9846 	 4.40336 	 -104.86 	 
H 	 -98.591 	 3.54821 	 -105.101 	 
C 	 -99.2293 	 3.49275 	 -102.938 	 
H 	 -98.7348 	 4.40378 	 -102.678 	 
H 	 -100.107 	 3.39295 	 -102.341 	 
C 	 -98.195 	 2.41283 	 -102.499 	 
H 	 -97.1052 	 2.64332 	 -102.843 	 
H 	 -98.0255 	 2.38103 	 -101.404 	 
H 	 -98.4679 	 1.43435 	 -102.88 	 
S 	 -103.607 	 -0.0676514 	 -107.393 	 
C 	 -105.229 	 -0.374037 	 -106.94 	 
C 	 -105.523 	 0.072164 	 -105.65 	 
C 	 -104.442 	 0.645084 	 -105.044 	 
C 	 -103.292 	 0.541692 	 -105.833 	 
H 	 -106.513 	 0.0412879 	 -105.246 	 
C 	 -104.526 	 1.00229 	 -103.574 	 
H 	 -104.723 	 2.1083 	 -103.58 	 
H 	 -103.49 	 0.855616 	 -103.161 	 
C 	 -105.49 	 0.137752 	 -102.711 	 
H 	 -105.296 	 -0.928771 	 -102.92 	 
H 	 -106.468 	 0.466237 	 -103.086 	 
C 	 -105.55 	 0.49373 	 -101.212 	 
H 	 -104.68 	 0.312958 	 -100.636 	 
H 	 -106.352 	 -0.0711036 	 -100.76 	 
H 	 -105.903 	 1.53795 	 -101.09 	 
H 	 -98.3709 	 1.08349 	 -105.513 	 
H 	 -105.997 	 -0.835204 	 -107.59 	 
