34

S 	 -106.977 	 58.0776 	 -102.316 	 
C 	 -108.189 	 58.1094 	 -103.522 	 
C 	 -109.362 	 58.7029 	 -103.101 	 
C 	 -109.247 	 59.115 	 -101.731 	 
C 	 -108.104 	 58.7386 	 -101.112 	 
H 	 -110.04 	 59.5562 	 -101.196 	 
C 	 -110.634 	 58.969 	 -103.901 	 
H 	 -111.41 	 59.0084 	 -103.109 	 
H 	 -110.632 	 58.0575 	 -104.436 	 
C 	 -110.71 	 60.1836 	 -104.774 	 
H 	 -111.686 	 60.2263 	 -105.317 	 
H 	 -110.775 	 61.1224 	 -104.219 	 
C 	 -109.539 	 60.2984 	 -105.763 	 
H 	 -109.745 	 61.014 	 -106.58 	 
H 	 -108.621 	 60.5075 	 -105.278 	 
H 	 -109.497 	 59.3541 	 -106.34 	 
S 	 -107.297 	 57.8456 	 -98.7894 	 
C 	 -107.088 	 58.9313 	 -97.4162 	 
C 	 -107.549 	 60.2224 	 -97.7042 	 
C 	 -107.817 	 60.352 	 -99.0915 	 
C 	 -107.702 	 59.1382 	 -99.8164 	 
H 	 -107.586 	 60.9526 	 -96.8914 	 
C 	 -108.317 	 61.7642 	 -99.6109 	 
H 	 -108.318 	 61.6055 	 -100.721 	 
H 	 -107.55 	 62.4923 	 -99.5591 	 
C 	 -109.642 	 62.3292 	 -98.9428 	 
H 	 -109.84 	 63.2365 	 -99.4839 	 
H 	 -109.458 	 62.5406 	 -97.8399 	 
C 	 -110.864 	 61.4316 	 -99.0238 	 
H 	 -111.671 	 61.8381 	 -98.3191 	 
H 	 -110.699 	 60.3548 	 -98.766 	 
H 	 -111.284 	 61.3237 	 -100.055 	 
H 	 -108.135 	 57.6307 	 -104.48 	 
H 	 -106.791 	 58.575 	 -96.3967 	 
