34

S 	 26.0325 	 -8.34383 	 -116.725 	 
C 	 26.0963 	 -9.36617 	 -118.12 	 
C 	 27.2215 	 -8.97701 	 -118.901 	 
C 	 27.8071 	 -7.73322 	 -118.448 	 
C 	 27.3739 	 -7.35724 	 -117.2 	 
H 	 28.519 	 -7.09866 	 -118.975 	 
C 	 27.7755 	 -9.70084 	 -120.111 	 
H 	 27.623 	 -8.98025 	 -120.945 	 
H 	 27.2733 	 -10.5906 	 -120.365 	 
C 	 29.2513 	 -9.96281 	 -120.028 	 
H 	 29.7165 	 -9.03242 	 -119.944 	 
H 	 29.4651 	 -10.4427 	 -119.069 	 
C 	 29.8908 	 -10.631 	 -121.239 	 
H 	 29.542 	 -10.2516 	 -122.215 	 
H 	 30.9936 	 -10.6959 	 -121.146 	 
H 	 29.487 	 -11.6499 	 -121.21 	 
S 	 26.6328 	 -4.72723 	 -116.935 	 
C 	 27.6895 	 -3.65754 	 -116.184 	 
C 	 28.8893 	 -4.17793 	 -115.82 	 
C 	 28.9426 	 -5.55928 	 -116.154 	 
C 	 27.6896 	 -6.04933 	 -116.547 	 
H 	 29.6295 	 -3.58409 	 -115.3 	 
C 	 30.081 	 -6.40503 	 -115.676 	 
H 	 29.8963 	 -7.48055 	 -115.883 	 
H 	 30.2342 	 -6.3191 	 -114.518 	 
C 	 31.398 	 -6.04608 	 -116.276 	 
H 	 31.6903 	 -5.04826 	 -115.984 	 
H 	 31.3018 	 -6.01077 	 -117.359 	 
C 	 32.4324 	 -7.09817 	 -115.818 	 
H 	 33.3696 	 -6.82771 	 -116.319 	 
H 	 32.1064 	 -8.11871 	 -115.996 	 
H 	 32.5793 	 -7.04547 	 -114.732 	 
H 	 25.5429 	 -10.3265 	 -118.242 	 
H 	 27.5646 	 -2.56766 	 -116.08 	 
