34

S 	 -51.34 	 -50.216 	 -80.0007 	 
C 	 -50.8377 	 -51.6364 	 -80.9482 	 
C 	 -51.9205 	 -52.4779 	 -81.1208 	 
C 	 -53.1692 	 -51.8353 	 -80.7343 	 
C 	 -53.0169 	 -50.5663 	 -80.2081 	 
H 	 -54.1929 	 -52.2893 	 -80.8708 	 
C 	 -51.9037 	 -53.7674 	 -81.9581 	 
H 	 -51.778 	 -54.5248 	 -81.2409 	 
H 	 -50.9662 	 -53.9197 	 -82.547 	 
C 	 -53.1539 	 -54.1123 	 -82.9471 	 
H 	 -54.0959 	 -53.882 	 -82.4671 	 
H 	 -53.1913 	 -53.4759 	 -83.8171 	 
C 	 -53.1672 	 -55.6242 	 -83.2692 	 
H 	 -52.3386 	 -55.8524 	 -83.886 	 
H 	 -53.0882 	 -56.1352 	 -82.3409 	 
H 	 -54.0916 	 -55.9789 	 -83.7305 	 
S 	 -53.618 	 -49.0546 	 -78.0262 	 
C 	 -55.1589 	 -48.2427 	 -77.9635 	 
C 	 -55.9751 	 -48.5126 	 -79.1061 	 
C 	 -55.3421 	 -49.3962 	 -80.0083 	 
C 	 -54.0238 	 -49.7207 	 -79.5806 	 
H 	 -56.9437 	 -48.1137 	 -79.1818 	 
C 	 -55.9483 	 -49.958 	 -81.3012 	 
H 	 -55.0638 	 -50.1381 	 -81.8594 	 
H 	 -56.4421 	 -49.1572 	 -81.8929 	 
C 	 -56.852 	 -51.2409 	 -81.1558 	 
H 	 -57.597 	 -51.0436 	 -80.3545 	 
H 	 -56.2127 	 -52.0787 	 -80.7887 	 
C 	 -57.5282 	 -51.6663 	 -82.466 	 
H 	 -57.9342 	 -52.6541 	 -82.2954 	 
H 	 -56.7912 	 -51.6959 	 -83.2411 	 
H 	 -58.3439 	 -50.9497 	 -82.8722 	 
H 	 -49.802 	 -51.8424 	 -81.2518 	 
H 	 -55.4188 	 -47.6154 	 -77.1363 	 
