34

S 	 -70.6056 	 10.5509 	 18.4669 	 
C 	 -69.5953 	 11.4631 	 17.3026 	 
C 	 -69.004 	 10.6255 	 16.3696 	 
C 	 -69.4596 	 9.22966 	 16.5745 	 
C 	 -70.3349 	 9.05746 	 17.5464 	 
H 	 -69.1143 	 8.40448 	 15.995 	 
C 	 -68.0854 	 11.0676 	 15.2312 	 
H 	 -68.6466 	 11.9005 	 14.662 	 
H 	 -68.0565 	 10.2499 	 14.4959 	 
C 	 -66.6024 	 11.3072 	 15.5479 	 
H 	 -66.6085 	 12.2111 	 16.1892 	 
H 	 -66.2909 	 10.5164 	 16.2423 	 
C 	 -65.7116 	 11.5432 	 14.3852 	 
H 	 -66.0638 	 11.0519 	 13.4696 	 
H 	 -65.6771 	 12.6219 	 14.1599 	 
H 	 -64.6724 	 11.1693 	 14.5318 	 
S 	 -72.7573 	 7.8001 	 18.0106 	 
C 	 -72.7445 	 6.05629 	 18.1701 	 
C 	 -71.4445 	 5.56956 	 18.3535 	 
C 	 -70.4554 	 6.58316 	 18.1904 	 
C 	 -71.0149 	 7.83355 	 17.9247 	 
H 	 -71.1515 	 4.55153 	 18.3859 	 
C 	 -69.0291 	 6.27849 	 17.963 	 
H 	 -68.4017 	 7.19594 	 17.8505 	 
H 	 -68.8738 	 5.84852 	 17.0115 	 
C 	 -68.3929 	 5.42645 	 19.0973 	 
H 	 -68.9373 	 4.41042 	 18.9224 	 
H 	 -68.7025 	 5.67763 	 20.12 	 
C 	 -66.8993 	 5.08639 	 19.0606 	 
H 	 -66.7134 	 4.30638 	 19.7523 	 
H 	 -66.2138 	 5.9272 	 19.2872 	 
H 	 -66.5735 	 4.63648 	 18.1455 	 
H 	 -69.3709 	 12.5265 	 17.2902 	 
H 	 -73.5861 	 5.42731 	 18.1126 	 
