34

S 	 -56.4791 	 13.1177 	 -92.0534 	 
C 	 -55.5686 	 12.2398 	 -93.2307 	 
C 	 -54.5204 	 13.0218 	 -93.7485 	 
C 	 -54.4496 	 14.2919 	 -93.1662 	 
C 	 -55.5061 	 14.539 	 -92.3118 	 
H 	 -53.7541 	 15.0734 	 -93.2689 	 
C 	 -53.4346 	 12.643 	 -94.7399 	 
H 	 -53.3024 	 13.3377 	 -95.5596 	 
H 	 -53.6445 	 11.605 	 -95.1522 	 
C 	 -52.1179 	 12.4489 	 -94.099 	 
H 	 -51.866 	 13.4597 	 -93.6833 	 
H 	 -52.228 	 11.7798 	 -93.2233 	 
C 	 -51.0369 	 11.8435 	 -95.0085 	 
H 	 -50.4541 	 12.454 	 -95.7273 	 
H 	 -50.3256 	 11.3566 	 -94.3354 	 
H 	 -51.4202 	 10.9848 	 -95.5934 	 
S 	 -55.9241 	 15.9496 	 -90.0063 	 
C 	 -56.163 	 17.7253 	 -90.185 	 
C 	 -56.2032 	 18.1562 	 -91.4796 	 
C 	 -55.8093 	 17.0568 	 -92.3423 	 
C 	 -55.7694 	 15.7849 	 -91.7169 	 
H 	 -56.5079 	 19.1283 	 -91.8446 	 
C 	 -55.7904 	 17.2842 	 -93.796 	 
H 	 -56.7772 	 17.7704 	 -94.047 	 
H 	 -55.8031 	 16.3017 	 -94.3246 	 
C 	 -54.6395 	 18.2495 	 -94.2104 	 
H 	 -53.7061 	 17.7611 	 -93.9872 	 
H 	 -54.5566 	 19.1792 	 -93.6253 	 
C 	 -54.6654 	 18.5147 	 -95.7652 	 
H 	 -54.5129 	 17.5233 	 -96.2829 	 
H 	 -53.9005 	 19.1981 	 -95.8388 	 
H 	 -55.6493 	 18.8702 	 -96.0694 	 
H 	 -55.7098 	 11.1679 	 -93.4608 	 
H 	 -56.2493 	 18.3405 	 -89.3469 	 
