34

S 	 -106.491 	 60.4391 	 -99.8349 	 
C 	 -105.033 	 60.3155 	 -98.8762 	 
C 	 -105.311 	 60.0808 	 -97.544 	 
C 	 -106.727 	 59.8553 	 -97.3132 	 
C 	 -107.474 	 59.8095 	 -98.4935 	 
H 	 -107.128 	 59.7722 	 -96.2596 	 
C 	 -104.432 	 60.3574 	 -96.365 	 
H 	 -104.948 	 61.0443 	 -95.7594 	 
H 	 -103.557 	 60.9303 	 -96.7734 	 
C 	 -104.074 	 59.0917 	 -95.5556 	 
H 	 -104.96 	 58.6549 	 -95.068 	 
H 	 -103.724 	 58.393 	 -96.3258 	 
C 	 -102.863 	 59.4363 	 -94.6163 	 
H 	 -102.073 	 60.1276 	 -95.0162 	 
H 	 -103.128 	 59.7259 	 -93.5817 	 
H 	 -102.429 	 58.521 	 -94.3273 	 
S 	 -110.056 	 59.8816 	 -97.2553 	 
C 	 -111.389 	 59.7229 	 -98.2399 	 
C 	 -111.096 	 59.6312 	 -99.5838 	 
C 	 -109.711 	 59.5336 	 -99.8251 	 
C 	 -108.937 	 59.6461 	 -98.65 	 
H 	 -111.826 	 59.6 	 -100.373 	 
C 	 -109.238 	 59.2942 	 -101.245 	 
H 	 -109.827 	 58.4685 	 -101.718 	 
H 	 -108.181 	 58.9054 	 -101.286 	 
C 	 -109.372 	 60.4418 	 -102.206 	 
H 	 -108.923 	 61.2711 	 -101.672 	 
H 	 -110.442 	 60.5803 	 -102.328 	 
C 	 -108.843 	 60.2471 	 -103.643 	 
H 	 -109.458 	 59.546 	 -104.146 	 
H 	 -107.782 	 59.9287 	 -103.678 	 
H 	 -108.744 	 61.1099 	 -104.268 	 
H 	 -104.014 	 60.6083 	 -99.1959 	 
H 	 -112.383 	 59.967 	 -97.8857 	 
