34

S 	 -112.408 	 57.7192 	 -16.8564 	 
C 	 -112.342 	 59.4267 	 -16.5389 	 
C 	 -112.271 	 60.1217 	 -17.6924 	 
C 	 -112.083 	 59.2776 	 -18.8552 	 
C 	 -112.151 	 57.9066 	 -18.6446 	 
H 	 -111.77 	 59.5726 	 -19.8386 	 
C 	 -112.004 	 61.6781 	 -17.7817 	 
H 	 -112.891 	 62.1929 	 -17.4989 	 
H 	 -111.842 	 61.8839 	 -18.8053 	 
C 	 -110.86 	 62.1524 	 -16.9748 	 
H 	 -111.269 	 62.0684 	 -15.8891 	 
H 	 -110.054 	 61.4166 	 -17.217 	 
C 	 -110.487 	 63.6062 	 -17.2676 	 
H 	 -111.358 	 64.1288 	 -17.1467 	 
H 	 -109.819 	 64.0173 	 -16.4523 	 
H 	 -110.059 	 63.9062 	 -18.2404 	 
S 	 -112.935 	 55.3276 	 -19.2362 	 
C 	 -112.336 	 54.5429 	 -20.6647 	 
C 	 -111.521 	 55.3642 	 -21.4045 	 
C 	 -111.464 	 56.6588 	 -20.877 	 
C 	 -112.056 	 56.7703 	 -19.5969 	 
H 	 -111.209 	 55.0815 	 -22.3604 	 
C 	 -110.466 	 57.6893 	 -21.4208 	 
H 	 -109.604 	 57.1376 	 -21.7899 	 
H 	 -110.131 	 58.4443 	 -20.7263 	 
C 	 -111.068 	 58.5133 	 -22.5793 	 
H 	 -111.791 	 59.2173 	 -22.2107 	 
H 	 -111.708 	 57.833 	 -23.1069 	 
C 	 -110.045 	 59.1798 	 -23.5352 	 
H 	 -110.569 	 59.8537 	 -24.2297 	 
H 	 -109.763 	 58.3213 	 -24.1956 	 
H 	 -109.17 	 59.6728 	 -23.0187 	 
H 	 -112.364 	 59.8995 	 -15.5456 	 
H 	 -112.777 	 53.5921 	 -21.0407 	 
