34

S 	 -75.1714 	 -0.399856 	 -69.5351 	 
C 	 -73.6882 	 0.159157 	 -68.8388 	 
C 	 -73.8411 	 1.06809 	 -67.8044 	 
C 	 -75.2134 	 1.34837 	 -67.535 	 
C 	 -76.0667 	 0.786844 	 -68.4881 	 
H 	 -75.6293 	 1.93246 	 -66.7742 	 
C 	 -72.8176 	 1.61727 	 -66.8529 	 
H 	 -71.9172 	 1.17222 	 -67.1256 	 
H 	 -73.1127 	 1.31773 	 -65.8448 	 
C 	 -72.4802 	 3.12557 	 -67.0997 	 
H 	 -72.1053 	 3.25794 	 -68.0759 	 
H 	 -73.4373 	 3.72082 	 -66.9909 	 
C 	 -71.3665 	 3.71217 	 -66.1417 	 
H 	 -71.6525 	 3.59666 	 -65.111 	 
H 	 -70.4328 	 3.11597 	 -66.2494 	 
H 	 -71.0544 	 4.68548 	 -66.3368 	 
S 	 -78.2987 	 -0.821642 	 -68.384 	 
C 	 -79.8595 	 -0.167386 	 -68.3688 	 
C 	 -79.7693 	 1.19311 	 -68.4819 	 
C 	 -78.4887 	 1.73318 	 -68.4418 	 
C 	 -77.5039 	 0.758162 	 -68.463 	 
H 	 -80.7494 	 1.69347 	 -68.4863 	 
C 	 -78.2501 	 3.27642 	 -68.5608 	 
H 	 -79.0377 	 3.76654 	 -69.144 	 
H 	 -77.3254 	 3.43148 	 -69.2317 	 
C 	 -77.9743 	 4.06347 	 -67.2349 	 
H 	 -77.03 	 3.91289 	 -66.7918 	 
H 	 -78.6125 	 3.66794 	 -66.4953 	 
C 	 -78.2354 	 5.58896 	 -67.4151 	 
H 	 -79.2674 	 5.84675 	 -67.6606 	 
H 	 -77.5229 	 5.99062 	 -68.1166 	 
H 	 -77.914 	 6.09412 	 -66.5371 	 
H 	 -72.7221 	 -0.1864 	 -69.1715 	 
H 	 -80.8192 	 -0.636829 	 -68.2913 	 
