34

S 	 -43.2655 	 20.8458 	 -98.4349 	 
C 	 -44.4896 	 20.6206 	 -97.2338 	 
C 	 -45.395 	 19.6545 	 -97.618 	 
C 	 -45.1172 	 19.1317 	 -98.9329 	 
C 	 -44.0089 	 19.6496 	 -99.4975 	 
H 	 -45.6572 	 18.4234 	 -99.4754 	 
C 	 -46.6362 	 19.2932 	 -96.7107 	 
H 	 -47.2415 	 18.5877 	 -97.324 	 
H 	 -47.2026 	 20.1828 	 -96.6185 	 
C 	 -46.4122 	 18.6189 	 -95.3744 	 
H 	 -45.8646 	 19.2037 	 -94.6646 	 
H 	 -47.4246 	 18.5078 	 -94.9626 	 
C 	 -45.7836 	 17.2217 	 -95.4802 	 
H 	 -46.384 	 16.4734 	 -95.8828 	 
H 	 -44.8751 	 17.3271 	 -96.0598 	 
H 	 -45.5757 	 16.9627 	 -94.4664 	 
S 	 -42.8577 	 20.5597 	 -101.862 	 
C 	 -42.4928 	 19.441 	 -103.117 	 
C 	 -42.7052 	 18.1449 	 -102.649 	 
C 	 -43.2747 	 18.0362 	 -101.322 	 
C 	 -43.4471 	 19.3262 	 -100.768 	 
H 	 -42.4316 	 17.3025 	 -103.25 	 
C 	 -43.5922 	 16.7265 	 -100.736 	 
H 	 -44.416 	 16.3203 	 -101.347 	 
H 	 -44.0943 	 16.9467 	 -99.8073 	 
C 	 -42.5998 	 15.6429 	 -100.467 	 
H 	 -41.8921 	 15.4344 	 -101.249 	 
H 	 -43.0014 	 14.6534 	 -100.18 	 
C 	 -41.7302 	 15.9721 	 -99.2424 	 
H 	 -40.8066 	 15.4146 	 -99.26 	 
H 	 -42.2595 	 15.659 	 -98.3193 	 
H 	 -41.431 	 17.0642 	 -99.1646 	 
H 	 -44.4479 	 21.2437 	 -96.3122 	 
H 	 -42.0102 	 19.6092 	 -104.119 	 
