34

S 	 -138.713 	 4.55222 	 5.05354 	 
C 	 -138.963 	 3.85291 	 3.49746 	 
C 	 -137.787 	 4.01024 	 2.74474 	 
C 	 -136.676 	 4.52171 	 3.46081 	 
C 	 -137.003 	 4.88289 	 4.77368 	 
H 	 -135.707 	 4.82286 	 3.03477 	 
C 	 -137.68 	 3.59974 	 1.25845 	 
H 	 -138.209 	 2.7256 	 1.05061 	 
H 	 -136.642 	 3.37479 	 1.12264 	 
C 	 -138.017 	 4.69413 	 0.301033 	 
H 	 -137.853 	 4.36954 	 -0.710273 	 
H 	 -139.073 	 4.84317 	 0.33314 	 
C 	 -137.348 	 6.02146 	 0.453372 	 
H 	 -137.385 	 6.44132 	 1.50333 	 
H 	 -136.213 	 6.02573 	 0.383134 	 
H 	 -137.589 	 6.68717 	 -0.325371 	 
S 	 -136.779 	 6.86747 	 6.57515 	 
C 	 -135.355 	 7.05876 	 7.60487 	 
C 	 -134.419 	 6.02703 	 7.30795 	 
C 	 -134.868 	 5.13408 	 6.26926 	 
C 	 -136.132 	 5.46973 	 5.81294 	 
H 	 -133.531 	 6.03251 	 7.84638 	 
C 	 -133.962 	 3.9546 	 5.80358 	 
H 	 -133.921 	 3.79954 	 4.7699 	 
H 	 -134.583 	 3.11332 	 6.30238 	 
C 	 -132.448 	 4.13036 	 6.26176 	 
H 	 -131.932 	 3.25265 	 5.89922 	 
H 	 -132.317 	 4.12333 	 7.31908 	 
C 	 -131.669 	 5.30639 	 5.64066 	 
H 	 -131.64 	 5.22017 	 4.57259 	 
H 	 -130.662 	 5.38887 	 6.05659 	 
H 	 -132.06 	 6.30369 	 5.91091 	 
H 	 -139.929 	 3.56061 	 3.04194 	 
H 	 -135.289 	 7.95705 	 8.22392 	 
