34

S 	 -114.848 	 38.5035 	 -116.21 	 
C 	 -113.302 	 37.7633 	 -116.722 	 
C 	 -113.004 	 36.6293 	 -115.949 	 
C 	 -114.011 	 36.3698 	 -115.02 	 
C 	 -115.059 	 37.2535 	 -114.972 	 
H 	 -113.958 	 35.5008 	 -114.392 	 
C 	 -111.692 	 35.8057 	 -116.161 	 
H 	 -111.453 	 35.7479 	 -117.244 	 
H 	 -111.93 	 34.7765 	 -115.871 	 
C 	 -110.43 	 36.2705 	 -115.33 	 
H 	 -110.146 	 37.3195 	 -115.451 	 
H 	 -110.642 	 36.1606 	 -114.279 	 
C 	 -109.137 	 35.5139 	 -115.73 	 
H 	 -109.519 	 34.4746 	 -115.784 	 
H 	 -108.704 	 35.8013 	 -116.7 	 
H 	 -108.371 	 35.4646 	 -114.971 	 
S 	 -116.829 	 38.8732 	 -113.647 	 
C 	 -117.642 	 38.3602 	 -112.173 	 
C 	 -117.428 	 36.9972 	 -111.999 	 
C 	 -116.673 	 36.3647 	 -113.09 	 
C 	 -116.155 	 37.3129 	 -113.97 	 
H 	 -117.927 	 36.4109 	 -111.201 	 
C 	 -116.551 	 34.8218 	 -113.156 	 
H 	 -116.131 	 34.6158 	 -114.176 	 
H 	 -117.499 	 34.3326 	 -113.006 	 
C 	 -115.751 	 34.1244 	 -112.042 	 
H 	 -116.424 	 34.1664 	 -111.178 	 
H 	 -115.012 	 34.7993 	 -111.653 	 
C 	 -115.34 	 32.6712 	 -112.286 	 
H 	 -114.947 	 32.2857 	 -111.338 	 
H 	 -114.608 	 32.6564 	 -113.111 	 
H 	 -116.189 	 32.0284 	 -112.496 	 
H 	 -112.728 	 38.2231 	 -117.488 	 
H 	 -118.226 	 38.9541 	 -111.501 	 
