34

S 	 -147.362 	 11.6633 	 -5.83037 	 
C 	 -147.603 	 10.825 	 -4.33011 	 
C 	 -148.587 	 9.82372 	 -4.4923 	 
C 	 -149.112 	 9.76231 	 -5.82876 	 
C 	 -148.734 	 10.8925 	 -6.52533 	 
H 	 -149.894 	 9.0469 	 -6.12576 	 
C 	 -149.036 	 8.84727 	 -3.41754 	 
H 	 -150.207 	 8.81631 	 -3.40725 	 
H 	 -148.591 	 9.25235 	 -2.4903 	 
C 	 -148.438 	 7.46622 	 -3.39584 	 
H 	 -148.849 	 6.9882 	 -2.47747 	 
H 	 -148.772 	 6.9238 	 -4.19141 	 
C 	 -146.891 	 7.49973 	 -3.46158 	 
H 	 -146.517 	 6.56322 	 -3.41753 	 
H 	 -146.582 	 7.82605 	 -4.46358 	 
H 	 -146.274 	 8.00018 	 -2.70956 	 
S 	 -148.533 	 10.9041 	 -9.31854 	 
C 	 -149.66 	 11.8706 	 -10.2914 	 
C 	 -150.549 	 12.5087 	 -9.41223 	 
C 	 -150.303 	 12.2435 	 -7.98146 	 
C 	 -149.252 	 11.3549 	 -7.77555 	 
H 	 -151.312 	 13.1418 	 -9.77503 	 
C 	 -151.116 	 12.9164 	 -6.96388 	 
H 	 -151.468 	 12.1821 	 -6.2857 	 
H 	 -152.041 	 13.3029 	 -7.44894 	 
C 	 -150.482 	 13.9313 	 -6.19751 	 
H 	 -149.869 	 14.4229 	 -6.92011 	 
H 	 -149.86 	 13.4778 	 -5.41957 	 
C 	 -151.381 	 14.9722 	 -5.48546 	 
H 	 -151.742 	 14.4392 	 -4.55006 	 
H 	 -152.262 	 15.3308 	 -5.99019 	 
H 	 -150.853 	 15.8356 	 -5.20773 	 
H 	 -147.023 	 10.871 	 -3.43994 	 
H 	 -149.769 	 12.0164 	 -11.3187 	 
