34

S 	 -60.2759 	 12.237 	 -89.9433 	 
C 	 -59.873 	 13.1657 	 -91.318 	 
C 	 -59.1037 	 14.2637 	 -91.0674 	 
C 	 -58.8178 	 14.323 	 -89.6661 	 
C 	 -59.2231 	 13.2038 	 -88.9632 	 
H 	 -58.2737 	 15.0869 	 -89.1618 	 
C 	 -58.8114 	 15.4062 	 -92.0098 	 
H 	 -59.6668 	 15.4485 	 -92.6723 	 
H 	 -57.8614 	 15.1315 	 -92.522 	 
C 	 -58.7775 	 16.8295 	 -91.45 	 
H 	 -58.1372 	 17.0175 	 -90.6905 	 
H 	 -58.3745 	 17.4894 	 -92.1704 	 
C 	 -60.1174 	 17.4152 	 -91.0209 	 
H 	 -60.6341 	 16.7231 	 -90.4744 	 
H 	 -60.0326 	 18.3675 	 -90.402 	 
H 	 -60.5938 	 17.6103 	 -91.9658 	 
S 	 -60.132 	 12.3097 	 -86.4789 	 
C 	 -59.0512 	 11.9829 	 -85.1988 	 
C 	 -57.7712 	 12.352 	 -85.5529 	 
C 	 -57.6223 	 12.7575 	 -86.9221 	 
C 	 -58.8798 	 12.8614 	 -87.5971 	 
H 	 -56.9607 	 12.2618 	 -84.8035 	 
C 	 -56.2149 	 13.1458 	 -87.4713 	 
H 	 -55.593 	 13.4756 	 -86.6959 	 
H 	 -56.437 	 14.0862 	 -88.0944 	 
C 	 -55.5042 	 12.0808 	 -88.339 	 
H 	 -56.0525 	 11.761 	 -89.192 	 
H 	 -55.6008 	 11.1145 	 -87.7989 	 
C 	 -54.1485 	 12.5061 	 -88.8212 	 
H 	 -53.5336 	 12.5772 	 -87.9151 	 
H 	 -54.1251 	 13.3984 	 -89.4134 	 
H 	 -53.7731 	 11.641 	 -89.41 	 
H 	 -60.2873 	 13.0674 	 -92.2625 	 
H 	 -59.2854 	 11.4084 	 -84.328 	 
