34

S 	 -47.2805 	 19.8166 	 28.5589 	 
C 	 -47.7958 	 19.8502 	 26.9253 	 
C 	 -47.4315 	 18.7006 	 26.2031 	 
C 	 -46.8976 	 17.6774 	 27.0736 	 
C 	 -46.9587 	 18.0799 	 28.4145 	 
H 	 -46.5769 	 16.74 	 26.7763 	 
C 	 -47.5284 	 18.5686 	 24.6978 	 
H 	 -47.5142 	 17.5417 	 24.4379 	 
H 	 -46.6133 	 19.0783 	 24.3928 	 
C 	 -48.7 	 19.2921 	 23.8909 	 
H 	 -48.6365 	 20.4024 	 24.0377 	 
H 	 -48.5861 	 19.1277 	 22.7501 	 
C 	 -50.1571 	 18.7219 	 24.1786 	 
H 	 -50.3269 	 18.769 	 25.2448 	 
H 	 -50.8378 	 19.4795 	 23.7792 	 
H 	 -50.2921 	 17.8066 	 23.7128 	 
S 	 -45.1179 	 18.2221 	 30.4697 	 
C 	 -44.8593 	 16.9136 	 31.5665 	 
C 	 -45.7078 	 15.9296 	 31.2415 	 
C 	 -46.473 	 16.0503 	 30.001 	 
C 	 -46.409 	 17.3412 	 29.5628 	 
H 	 -45.5859 	 14.9868 	 31.7762 	 
C 	 -47.2334 	 14.8382 	 29.3833 	 
H 	 -46.9119 	 13.8776 	 29.8887 	 
H 	 -46.8024 	 14.5541 	 28.4784 	 
C 	 -48.7424 	 14.9832 	 29.3979 	 
H 	 -49.0556 	 14.3315 	 28.6591 	 
H 	 -49.1791 	 15.9565 	 29.1823 	 
C 	 -49.5148 	 14.5953 	 30.6986 	 
H 	 -49.3859 	 13.4722 	 30.7978 	 
H 	 -50.4951 	 14.9114 	 30.6518 	 
H 	 -49.1654 	 15.1376 	 31.5599 	 
H 	 -48.1532 	 20.7613 	 26.5016 	 
H 	 -44.3776 	 16.975 	 32.5054 	 
