34

S 	 -100.859 	 27.3358 	 -117.119 	 
C 	 -102.382 	 27.2858 	 -116.129 	 
C 	 -103.498 	 27.6845 	 -116.887 	 
C 	 -103.096 	 27.8398 	 -118.329 	 
C 	 -101.759 	 27.571 	 -118.611 	 
H 	 -103.668 	 28.1508 	 -119.143 	 
C 	 -104.942 	 27.6351 	 -116.397 	 
H 	 -104.969 	 28.2253 	 -115.456 	 
H 	 -105.206 	 26.5445 	 -116.231 	 
C 	 -105.961 	 28.1443 	 -117.448 	 
H 	 -105.563 	 29.0126 	 -117.951 	 
H 	 -105.81 	 27.4796 	 -118.277 	 
C 	 -107.37 	 28.2197 	 -116.847 	 
H 	 -107.532 	 29.0095 	 -116.124 	 
H 	 -108.132 	 28.2658 	 -117.617 	 
H 	 -107.552 	 27.2562 	 -116.429 	 
S 	 -99.7327 	 28.9802 	 -119.898 	 
C 	 -99.5329 	 28.7513 	 -121.679 	 
C 	 -100.614 	 28.0805 	 -122.185 	 
C 	 -101.454 	 27.4603 	 -121.204 	 
C 	 -101.087 	 27.7976 	 -119.898 	 
H 	 -100.692 	 27.8886 	 -123.231 	 
C 	 -102.651 	 26.6396 	 -121.529 	 
H 	 -103.314 	 27.4142 	 -121.97 	 
H 	 -103.236 	 26.3359 	 -120.637 	 
C 	 -102.332 	 25.413 	 -122.465 	 
H 	 -101.715 	 24.785 	 -121.914 	 
H 	 -101.777 	 25.6296 	 -123.394 	 
C 	 -103.635 	 24.6941 	 -122.833 	 
H 	 -104.282 	 25.2989 	 -123.404 	 
H 	 -104.237 	 24.3086 	 -121.987 	 
H 	 -103.405 	 23.9703 	 -123.514 	 
H 	 -102.413 	 26.9363 	 -115.165 	 
H 	 -98.8467 	 29.2971 	 -122.251 	 
