34

S 	 -36.9718 	 -44.3936 	 -79.9401 	 
C 	 -38.0736 	 -43.0656 	 -79.5174 	 
C 	 -37.4773 	 -42.1068 	 -78.8068 	 
C 	 -36.1082 	 -42.3765 	 -78.4424 	 
C 	 -35.6952 	 -43.5383 	 -79.0007 	 
H 	 -35.3897 	 -41.9292 	 -77.7999 	 
C 	 -38.196 	 -40.9807 	 -78.1532 	 
H 	 -37.4966 	 -40.447 	 -77.4631 	 
H 	 -39.0495 	 -41.3647 	 -77.5835 	 
C 	 -38.8934 	 -39.9683 	 -79.0924 	 
H 	 -38.3021 	 -39.6926 	 -79.9472 	 
H 	 -39.7761 	 -40.442 	 -79.5131 	 
C 	 -39.4443 	 -38.6434 	 -78.5844 	 
H 	 -38.6844 	 -37.8977 	 -78.3973 	 
H 	 -40.1354 	 -38.2309 	 -79.2935 	 
H 	 -40.0533 	 -38.8356 	 -77.7228 	 
S 	 -34.187 	 -45.518 	 -77.8779 	 
C 	 -32.4837 	 -45.6144 	 -78.1046 	 
C 	 -32.0059 	 -44.5139 	 -78.8422 	 
C 	 -33.0656 	 -43.6024 	 -79.1726 	 
C 	 -34.3239 	 -44.1138 	 -78.8624 	 
H 	 -30.9581 	 -44.3076 	 -79.0883 	 
C 	 -32.7512 	 -42.212 	 -79.6613 	 
H 	 -31.7774 	 -41.9994 	 -79.1619 	 
H 	 -33.4233 	 -41.4377 	 -79.2574 	 
C 	 -32.5551 	 -42.0591 	 -81.1431 	 
H 	 -32.5805 	 -41.0248 	 -81.4271 	 
H 	 -33.4595 	 -42.5435 	 -81.5822 	 
C 	 -31.27 	 -42.6407 	 -81.6989 	 
H 	 -31.1476 	 -42.5244 	 -82.7884 	 
H 	 -31.2842 	 -43.7289 	 -81.4152 	 
H 	 -30.386 	 -42.1841 	 -81.1717 	 
H 	 -39.1465 	 -43.1016 	 -79.8385 	 
H 	 -31.7407 	 -46.2829 	 -77.7441 	 
