34

S 	 -131.682 	 31.3091 	 -12.114 	 
C 	 -129.902 	 30.9448 	 -12.3797 	 
C 	 -129.584 	 31.2119 	 -13.7069 	 
C 	 -130.706 	 31.7131 	 -14.4474 	 
C 	 -131.871 	 31.8797 	 -13.7341 	 
H 	 -130.61 	 31.845 	 -15.5015 	 
C 	 -128.206 	 31.0282 	 -14.3767 	 
H 	 -127.469 	 30.7336 	 -13.574 	 
H 	 -127.803 	 32.0889 	 -14.6643 	 
C 	 -128.007 	 30.0892 	 -15.5686 	 
H 	 -128.721 	 30.3404 	 -16.3115 	 
H 	 -126.957 	 30.3085 	 -15.9849 	 
C 	 -128.261 	 28.6249 	 -15.0187 	 
H 	 -129.295 	 28.6288 	 -14.6542 	 
H 	 -128.241 	 27.9097 	 -15.8014 	 
H 	 -127.567 	 28.3288 	 -14.2854 	 
S 	 -133.97 	 33.4418 	 -13.9027 	 
C 	 -135.018 	 33.3824 	 -15.2431 	 
C 	 -134.875 	 32.171 	 -15.8794 	 
C 	 -133.834 	 31.378 	 -15.3707 	 
C 	 -133.228 	 31.9503 	 -14.2669 	 
H 	 -135.585 	 31.9138 	 -16.6022 	 
C 	 -133.477 	 29.9874 	 -15.9014 	 
H 	 -132.603 	 29.6446 	 -15.2768 	 
H 	 -133.164 	 30.1826 	 -16.8678 	 
C 	 -134.662 	 29.0348 	 -15.9293 	 
H 	 -135.467 	 29.4728 	 -16.4669 	 
H 	 -135.009 	 29.0058 	 -14.8924 	 
C 	 -134.314 	 27.6199 	 -16.3402 	 
H 	 -135.117 	 26.9323 	 -16.1691 	 
H 	 -133.509 	 27.1218 	 -15.8252 	 
H 	 -134.053 	 27.5885 	 -17.4264 	 
H 	 -129.275 	 30.3717 	 -11.757 	 
H 	 -135.739 	 34.1646 	 -15.482 	 
