34

S 	 -144.335 	 2.49409 	 14.8384 	 
C 	 -143.266 	 1.5692 	 13.7728 	 
C 	 -142.196 	 2.21849 	 13.3106 	 
C 	 -142.353 	 3.6044 	 13.5762 	 
C 	 -143.402 	 3.93482 	 14.4127 	 
H 	 -141.691 	 4.42158 	 13.2697 	 
C 	 -141.014 	 1.53497 	 12.5125 	 
H 	 -140.398 	 2.29268 	 12.0595 	 
H 	 -141.531 	 1.04487 	 11.6716 	 
C 	 -140.092 	 0.581973 	 13.3081 	 
H 	 -139.552 	 1.14124 	 14.0506 	 
H 	 -140.844 	 -0.0513278 	 13.8148 	 
C 	 -139.128 	 -0.208391 	 12.4484 	 
H 	 -138.66 	 0.510331 	 11.7261 	 
H 	 -138.433 	 -0.821236 	 13.1337 	 
H 	 -139.634 	 -0.940677 	 11.8721 	 
S 	 -142.97 	 6.05271 	 16.146 	 
C 	 -144.066 	 7.38238 	 16.1796 	 
C 	 -145.146 	 7.14638 	 15.421 	 
C 	 -145.008 	 5.98194 	 14.6101 	 
C 	 -143.803 	 5.32199 	 14.8201 	 
H 	 -145.99 	 7.85931 	 15.3744 	 
C 	 -146.108 	 5.53476 	 13.6693 	 
H 	 -147.079 	 5.87726 	 14.0521 	 
H 	 -146.244 	 4.42219 	 13.5492 	 
C 	 -146.098 	 6.08943 	 12.2729 	 
H 	 -145.29 	 5.69218 	 11.7234 	 
H 	 -145.986 	 7.11353 	 12.2258 	 
C 	 -147.4 	 5.86304 	 11.6477 	 
H 	 -148.107 	 6.43297 	 12.1443 	 
H 	 -147.858 	 4.86303 	 11.685 	 
H 	 -147.478 	 6.06715 	 10.5522 	 
H 	 -143.287 	 0.48171 	 13.6147 	 
H 	 -144.111 	 8.05572 	 17.031 	 
