34

S 	 37.9684 	 -14.2769 	 -121.346 	 
C 	 38.3752 	 -12.6118 	 -121.531 	 
C 	 39.1384 	 -12.3373 	 -122.634 	 
C 	 39.3072 	 -13.5495 	 -123.401 	 
C 	 38.6999 	 -14.7172 	 -122.906 	 
H 	 39.8923 	 -13.737 	 -124.314 	 
C 	 39.6339 	 -10.9319 	 -123.022 	 
H 	 39.8866 	 -10.5256 	 -122.053 	 
H 	 38.7894 	 -10.3585 	 -123.432 	 
C 	 40.8117 	 -10.6299 	 -123.976 	 
H 	 40.5479 	 -10.9117 	 -124.971 	 
H 	 41.0313 	 -9.54194 	 -124.142 	 
C 	 41.991 	 -11.481 	 -123.424 	 
H 	 41.9068 	 -12.5177 	 -123.559 	 
H 	 42.9392 	 -11.0432 	 -123.912 	 
H 	 42.1921 	 -11.2056 	 -122.332 	 
S 	 37.3125 	 -17.0031 	 -123.488 	 
C 	 37.9749 	 -18.3331 	 -124.385 	 
C 	 39.2232 	 -17.9882 	 -124.786 	 
C 	 39.7151 	 -16.725 	 -124.281 	 
C 	 38.7862 	 -16.0512 	 -123.502 	 
H 	 39.7457 	 -18.737 	 -125.443 	 
C 	 41.1431 	 -16.2483 	 -124.571 	 
H 	 41.7765 	 -17.095 	 -124.595 	 
H 	 41.4584 	 -15.5348 	 -123.795 	 
C 	 41.2453 	 -15.5057 	 -125.902 	 
H 	 40.5382 	 -14.641 	 -125.988 	 
H 	 40.7982 	 -16.1532 	 -126.644 	 
C 	 42.6525 	 -15.2108 	 -126.306 	 
H 	 42.8009 	 -14.8466 	 -127.348 	 
H 	 43.333 	 -16.0398 	 -126.149 	 
H 	 42.8968 	 -14.5044 	 -125.504 	 
H 	 38.0579 	 -11.7939 	 -120.915 	 
H 	 37.6095 	 -19.2636 	 -124.702 	 
