34

S 	 -70.3343 	 17.0678 	 -69.5495 	 
C 	 -69.606 	 15.6272 	 -68.7882 	 
C 	 -68.3929 	 16.0183 	 -68.1845 	 
C 	 -68.0935 	 17.3929 	 -68.232 	 
C 	 -68.9601 	 18.0777 	 -69.0028 	 
H 	 -67.1842 	 17.8985 	 -67.8496 	 
C 	 -67.5584 	 15.022 	 -67.4098 	 
H 	 -68.092 	 14.7141 	 -66.437 	 
H 	 -66.6965 	 15.5927 	 -67.0995 	 
C 	 -67.1254 	 13.8375 	 -68.2414 	 
H 	 -68.0081 	 13.2843 	 -68.4986 	 
H 	 -66.78 	 14.0329 	 -69.3004 	 
C 	 -66.2067 	 13.034 	 -67.345 	 
H 	 -66.7031 	 12.7029 	 -66.3459 	 
H 	 -65.889 	 12.1594 	 -67.9119 	 
H 	 -65.3108 	 13.605 	 -67.1705 	 
S 	 -67.0535 	 20.0363 	 -69.615 	 
C 	 -67.6745 	 21.5427 	 -70.2725 	 
C 	 -69.064 	 21.6411 	 -70.2479 	 
C 	 -69.6858 	 20.4383 	 -69.7712 	 
C 	 -68.7222 	 19.4346 	 -69.4569 	 
H 	 -69.6706 	 22.529 	 -70.5283 	 
C 	 -71.157 	 20.3677 	 -69.6725 	 
H 	 -71.5896 	 19.3756 	 -69.8598 	 
H 	 -71.6007 	 21.0324 	 -70.434 	 
C 	 -71.6925 	 20.7843 	 -68.2563 	 
H 	 -72.6916 	 20.8864 	 -68.467 	 
H 	 -71.3578 	 21.7378 	 -67.9391 	 
C 	 -71.5094 	 19.7066 	 -67.066 	 
H 	 -70.4784 	 19.4243 	 -66.8757 	 
H 	 -72.1471 	 18.8575 	 -67.4196 	 
H 	 -72.0529 	 20.0185 	 -66.2208 	 
H 	 -69.9239 	 14.551 	 -68.8849 	 
H 	 -67.1457 	 22.2954 	 -70.732 	 
