34

S 	 25.4232 	 -24.1744 	 -122.841 	 
C 	 26.7303 	 -24.7095 	 -123.877 	 
C 	 27.0769 	 -26.0385 	 -123.729 	 
C 	 26.4317 	 -26.5692 	 -122.572 	 
C 	 25.4879 	 -25.7036 	 -121.951 	 
H 	 26.4772 	 -27.6751 	 -122.31 	 
C 	 28.0415 	 -26.8486 	 -124.559 	 
H 	 27.9061 	 -27.9006 	 -124.359 	 
H 	 29.0415 	 -26.7356 	 -124.242 	 
C 	 27.9934 	 -26.688 	 -126.055 	 
H 	 27.1392 	 -27.2023 	 -126.491 	 
H 	 27.8026 	 -25.637 	 -126.341 	 
C 	 29.3216 	 -27.0284 	 -126.712 	 
H 	 29.5664 	 -28.1061 	 -126.597 	 
H 	 29.2831 	 -26.9466 	 -127.826 	 
H 	 30.1247 	 -26.4083 	 -126.268 	 
S 	 25.0542 	 -25.6338 	 -119.302 	 
C 	 23.4489 	 -26.015 	 -118.692 	 
C 	 22.5866 	 -26.3653 	 -119.668 	 
C 	 23.1919 	 -26.4354 	 -120.97 	 
C 	 24.5264 	 -26.0955 	 -120.912 	 
H 	 21.5451 	 -26.5377 	 -119.404 	 
C 	 22.3692 	 -26.6495 	 -122.193 	 
H 	 22.3741 	 -27.7314 	 -122.339 	 
H 	 22.7565 	 -26.0986 	 -123.101 	 
C 	 20.919 	 -26.0911 	 -122.18 	 
H 	 20.3727 	 -26.4291 	 -121.26 	 
H 	 20.4656 	 -26.4564 	 -123.167 	 
C 	 20.883 	 -24.4945 	 -122.192 	 
H 	 19.8933 	 -24.1744 	 -121.894 	 
H 	 21.1607 	 -23.9797 	 -123.084 	 
H 	 21.5834 	 -24.1325 	 -121.48 	 
H 	 27.2042 	 -24.102 	 -124.638 	 
H 	 23.0497 	 -26.0392 	 -117.715 	 
