34

S 	 -76.7566 	 -42.981 	 -94.0798 	 
C 	 -76.0635 	 -42.0513 	 -95.3631 	 
C 	 -76.9594 	 -42.0376 	 -96.4592 	 
C 	 -78.0926 	 -42.9285 	 -96.1965 	 
C 	 -78.0553 	 -43.579 	 -94.9776 	 
H 	 -78.9122 	 -43.2361 	 -96.8861 	 
C 	 -76.6042 	 -41.4962 	 -97.7958 	 
H 	 -77.2661 	 -41.9738 	 -98.4483 	 
H 	 -75.6014 	 -41.8404 	 -97.9735 	 
C 	 -76.8639 	 -40.0151 	 -98.0111 	 
H 	 -77.9208 	 -39.8323 	 -97.9572 	 
H 	 -76.4164 	 -39.4477 	 -97.195 	 
C 	 -76.214 	 -39.3816 	 -99.2304 	 
H 	 -76.7238 	 -39.5108 	 -100.171 	 
H 	 -75.8992 	 -38.3685 	 -99.0286 	 
H 	 -75.2549 	 -39.8685 	 -99.2938 	 
S 	 -78.2007 	 -45.9134 	 -93.6714 	 
C 	 -79.7033 	 -46.382 	 -92.8364 	 
C 	 -80.7445 	 -45.7181 	 -93.3583 	 
C 	 -80.3165 	 -44.6873 	 -94.2554 	 
C 	 -78.9431 	 -44.5477 	 -94.3211 	 
H 	 -81.7285 	 -45.9766 	 -93.1005 	 
C 	 -81.2813 	 -43.7173 	 -94.8257 	 
H 	 -82.2122 	 -44.2004 	 -95.2839 	 
H 	 -80.8967 	 -43.0716 	 -95.5757 	 
C 	 -81.9117 	 -42.7744 	 -93.822 	 
H 	 -82.3492 	 -41.9486 	 -94.4163 	 
H 	 -81.1589 	 -42.2439 	 -93.1921 	 
C 	 -83.0192 	 -43.3858 	 -92.8974 	 
H 	 -83.698 	 -42.6546 	 -92.5112 	 
H 	 -82.5024 	 -43.7764 	 -92.0339 	 
H 	 -83.6676 	 -44.0857 	 -93.4537 	 
H 	 -75.1487 	 -41.5197 	 -95.4195 	 
H 	 -79.7902 	 -47.1761 	 -92.1283 	 
