34

S 	 -69.388 	 21.6302 	 -114.436 	 
C 	 -69.7836 	 22.2823 	 -112.896 	 
C 	 -68.7214 	 21.9701 	 -111.983 	 
C 	 -67.6432 	 21.2397 	 -112.649 	 
C 	 -67.8206 	 20.9935 	 -114.025 	 
H 	 -66.6778 	 21.0024 	 -112.273 	 
C 	 -68.5974 	 22.351 	 -110.545 	 
H 	 -68.4235 	 21.4563 	 -109.946 	 
H 	 -69.5083 	 22.851 	 -110.291 	 
C 	 -67.4163 	 23.3355 	 -110.204 	 
H 	 -66.6195 	 23.1961 	 -110.916 	 
H 	 -67.8304 	 24.2815 	 -110.415 	 
C 	 -66.9316 	 23.2845 	 -108.825 	 
H 	 -66.1841 	 23.9454 	 -108.525 	 
H 	 -67.806 	 23.52 	 -108.179 	 
H 	 -66.6014 	 22.299 	 -108.665 	 
S 	 -66.7729 	 21.4855 	 -116.588 	 
C 	 -65.2606 	 20.7307 	 -116.992 	 
C 	 -64.981 	 19.7306 	 -116.178 	 
C 	 -65.8675 	 19.5911 	 -115.048 	 
C 	 -66.887 	 20.5837 	 -115.02 	 
H 	 -64.1679 	 19.0065 	 -116.344 	 
C 	 -65.4933 	 18.6045 	 -113.967 	 
H 	 -66.0739 	 18.9041 	 -113.136 	 
H 	 -64.4677 	 18.6865 	 -113.757 	 
C 	 -65.7376 	 17.1433 	 -114.34 	 
H 	 -65.0599 	 16.8928 	 -115.152 	 
H 	 -66.8215 	 16.9744 	 -114.723 	 
C 	 -65.4721 	 16.3309 	 -113.089 	 
H 	 -64.3697 	 16.0673 	 -112.954 	 
H 	 -66.0229 	 15.3861 	 -113.17 	 
H 	 -65.7946 	 16.8279 	 -112.184 	 
H 	 -70.597 	 22.8985 	 -112.593 	 
H 	 -64.7606 	 20.8251 	 -117.916 	 
