34

S 	 -61.4422 	 9.12257 	 -77.0474 	 
C 	 -60.7134 	 10.1687 	 -75.8467 	 
C 	 -61.724 	 10.786 	 -75.1589 	 
C 	 -63.0285 	 10.6004 	 -75.7027 	 
C 	 -63.0469 	 9.64357 	 -76.7002 	 
H 	 -63.9719 	 11.0638 	 -75.4514 	 
C 	 -61.4928 	 11.7282 	 -73.9694 	 
H 	 -61.8393 	 12.7479 	 -74.3087 	 
H 	 -60.4148 	 11.8026 	 -73.7676 	 
C 	 -62.3152 	 11.2315 	 -72.8157 	 
H 	 -62.4506 	 12.0367 	 -72.0304 	 
H 	 -63.3233 	 11.0186 	 -73.1773 	 
C 	 -61.7191 	 9.98203 	 -72.1309 	 
H 	 -62.4075 	 9.50965 	 -71.3636 	 
H 	 -61.6204 	 9.16888 	 -72.9376 	 
H 	 -60.7634 	 10.1919 	 -71.6368 	 
S 	 -64.1887 	 9.14387 	 -79.2147 	 
C 	 -65.848 	 8.60519 	 -79.2689 	 
C 	 -66.3577 	 8.40389 	 -77.9956 	 
C 	 -65.4724 	 8.74339 	 -76.9267 	 
C 	 -64.2216 	 9.16832 	 -77.4121 	 
H 	 -67.3553 	 8.04499 	 -78.0164 	 
C 	 -66.0017 	 8.76852 	 -75.518 	 
H 	 -67.0273 	 8.49902 	 -75.6508 	 
H 	 -65.9939 	 9.74832 	 -75.1228 	 
C 	 -65.2086 	 7.89492 	 -74.5207 	 
H 	 -65.4601 	 8.10473 	 -73.4589 	 
H 	 -64.1488 	 8.18306 	 -74.4254 	 
C 	 -65.3077 	 6.37361 	 -74.7075 	 
H 	 -66.3769 	 6.06692 	 -74.7227 	 
H 	 -64.7231 	 5.88757 	 -73.9848 	 
H 	 -64.9044 	 6.05225 	 -75.6383 	 
H 	 -59.6771 	 10.1478 	 -75.465 	 
H 	 -66.3654 	 8.27993 	 -80.1504 	 
