34

S 	 -47.2313 	 11.0933 	 32.8668 	 
C 	 -45.7528 	 11.4642 	 31.9904 	 
C 	 -45.916 	 12.4812 	 31.0542 	 
C 	 -47.2752 	 12.9286 	 31.0211 	 
C 	 -48.0644 	 12.3739 	 32.0291 	 
H 	 -47.8377 	 13.5388 	 30.3339 	 
C 	 -44.8854 	 12.9931 	 30.0321 	 
H 	 -44.0716 	 12.2454 	 30.1617 	 
H 	 -44.4381 	 13.9617 	 30.315 	 
C 	 -45.2518 	 12.975 	 28.5979 	 
H 	 -46.262 	 13.3948 	 28.4584 	 
H 	 -44.5945 	 13.6033 	 27.9576 	 
C 	 -45.1788 	 11.5246 	 27.9868 	 
H 	 -45.6433 	 11.4971 	 27.017 	 
H 	 -44.1864 	 11.2337 	 27.7595 	 
H 	 -45.6921 	 10.8314 	 28.6414 	 
S 	 -50.5727 	 11.4417 	 31.4977 	 
C 	 -51.9126 	 12.3477 	 31.9521 	 
C 	 -51.585 	 13.4779 	 32.7157 	 
C 	 -50.2433 	 13.6844 	 32.6919 	 
C 	 -49.5265 	 12.5511 	 32.2358 	 
H 	 -52.2838 	 14.1155 	 33.1712 	 
C 	 -49.5975 	 14.8186 	 33.4246 	 
H 	 -48.4857 	 14.767 	 33.4226 	 
H 	 -49.8964 	 14.7084 	 34.4475 	 
C 	 -49.9486 	 16.2476 	 33.06 	 
H 	 -49.5995 	 16.9655 	 33.7716 	 
H 	 -50.9912 	 16.3635 	 33.2847 	 
C 	 -49.5588 	 16.7708 	 31.62 	 
H 	 -48.489 	 16.6704 	 31.4182 	 
H 	 -49.8498 	 17.7755 	 31.384 	 
H 	 -50.0076 	 15.9661 	 30.9484 	 
H 	 -44.8373 	 10.8669 	 31.9581 	 
H 	 -52.8873 	 11.9192 	 31.8736 	 
