34

S 	 26.6736 	 -10.3 	 -114.47 	 
C 	 28.4501 	 -10.4477 	 -114.378 	 
C 	 28.9308 	 -10.0893 	 -113.136 	 
C 	 27.9215 	 -9.73892 	 -112.229 	 
C 	 26.662 	 -9.73412 	 -112.813 	 
H 	 28.1866 	 -9.39887 	 -111.237 	 
C 	 30.4012 	 -10.2308 	 -112.739 	 
H 	 30.494 	 -10.0894 	 -111.71 	 
H 	 30.9527 	 -9.36396 	 -113.253 	 
C 	 31.2803 	 -11.5507 	 -113.098 	 
H 	 31.9759 	 -11.6022 	 -112.192 	 
H 	 30.6179 	 -12.415 	 -113.068 	 
C 	 31.9882 	 -11.4704 	 -114.488 	 
H 	 32.5318 	 -12.433 	 -114.729 	 
H 	 31.1379 	 -11.3472 	 -115.258 	 
H 	 32.6977 	 -10.6782 	 -114.713 	 
S 	 24.2106 	 -10.7708 	 -112.086 	 
C 	 23.1582 	 -9.80424 	 -111.085 	 
C 	 23.72 	 -8.61958 	 -110.768 	 
C 	 25.0089 	 -8.40348 	 -111.288 	 
C 	 25.4177 	 -9.48231 	 -112.086 	 
H 	 23.1124 	 -7.83766 	 -110.351 	 
C 	 25.6849 	 -7.09531 	 -111.03 	 
H 	 26.7698 	 -7.32176 	 -111.072 	 
H 	 25.4471 	 -6.77056 	 -109.998 	 
C 	 25.5268 	 -6.06935 	 -112.2 	 
H 	 24.447 	 -5.76775 	 -112.267 	 
H 	 25.6491 	 -6.55133 	 -113.185 	 
C 	 26.4425 	 -4.81753 	 -112.1 	 
H 	 26.1206 	 -4.07268 	 -112.769 	 
H 	 27.4548 	 -5.13541 	 -112.241 	 
H 	 26.4124 	 -4.44172 	 -111.103 	 
H 	 29.1587 	 -10.7452 	 -115.151 	 
H 	 22.1987 	 -10.0396 	 -110.669 	 
