34

S 	 -78.686 	 6.26829 	 -109.937 	 
C 	 -79.8627 	 6.16194 	 -111.257 	 
C 	 -80.139 	 7.39626 	 -111.784 	 
C 	 -79.2759 	 8.42973 	 -111.251 	 
C 	 -78.4958 	 8.00979 	 -110.187 	 
H 	 -79.2368 	 9.41859 	 -111.656 	 
C 	 -81.2773 	 7.66751 	 -112.766 	 
H 	 -81.708 	 8.63776 	 -112.403 	 
H 	 -82.0639 	 6.94069 	 -112.654 	 
C 	 -80.9741 	 7.7211 	 -114.243 	 
H 	 -81.8696 	 8.17404 	 -114.67 	 
H 	 -80.1542 	 8.42828 	 -114.52 	 
C 	 -80.7459 	 6.32243 	 -114.826 	 
H 	 -79.8239 	 5.80627 	 -114.394 	 
H 	 -81.5985 	 5.6322 	 -114.671 	 
H 	 -80.4738 	 6.49306 	 -115.919 	 
S 	 -75.9699 	 8.34465 	 -109.043 	 
C 	 -75.488 	 9.99487 	 -108.731 	 
C 	 -76.5803 	 10.8661 	 -108.628 	 
C 	 -77.7906 	 10.1648 	 -109.06 	 
C 	 -77.6228 	 8.85851 	 -109.407 	 
H 	 -76.567 	 11.8981 	 -108.253 	 
C 	 -79.1346 	 10.7804 	 -109.111 	 
H 	 -79.1747 	 11.2476 	 -108.123 	 
H 	 -79.902 	 10.0331 	 -109.359 	 
C 	 -79.1083 	 11.8509 	 -110.182 	 
H 	 -78.9502 	 11.4165 	 -111.174 	 
H 	 -78.3337 	 12.5928 	 -110.007 	 
C 	 -80.4396 	 12.6195 	 -110.238 	 
H 	 -80.3799 	 13.3091 	 -111.033 	 
H 	 -80.6109 	 13.1543 	 -109.339 	 
H 	 -81.2793 	 11.9468 	 -110.448 	 
H 	 -80.524 	 5.3147 	 -111.449 	 
H 	 -74.536 	 10.2191 	 -108.348 	 
