34

S 	 -42.2444 	 -2.50184 	 -23.6639 	 
C 	 -43.6874 	 -3.23431 	 -24.2609 	 
C 	 -44.4479 	 -3.85231 	 -23.2613 	 
C 	 -43.8234 	 -3.69853 	 -21.9836 	 
C 	 -42.6922 	 -2.8878 	 -22.0057 	 
H 	 -44.2249 	 -4.08536 	 -21.1238 	 
C 	 -45.7738 	 -4.56932 	 -23.5194 	 
H 	 -46.3479 	 -3.91687 	 -24.0875 	 
H 	 -46.3121 	 -4.71739 	 -22.6063 	 
C 	 -45.64 	 -5.95361 	 -24.1296 	 
H 	 -46.6807 	 -6.305 	 -24.4169 	 
H 	 -45.0087 	 -6.05565 	 -24.9998 	 
C 	 -45.2059 	 -7.02187 	 -23.116 	 
H 	 -45.8352 	 -6.99223 	 -22.2999 	 
H 	 -45.0698 	 -7.96797 	 -23.5844 	 
H 	 -44.1848 	 -6.75929 	 -22.7764 	 
S 	 -40.1926 	 -3.33085 	 -20.9613 	 
C 	 -39.8183 	 -2.65922 	 -19.3365 	 
C 	 -40.8607 	 -1.83764 	 -18.8477 	 
C 	 -41.9823 	 -1.89412 	 -19.6942 	 
C 	 -41.8115 	 -2.56332 	 -20.8873 	 
H 	 -40.8454 	 -1.33918 	 -17.933 	 
C 	 -43.2259 	 -1.09052 	 -19.3708 	 
H 	 -43.9895 	 -1.39369 	 -20.0609 	 
H 	 -43.0778 	 -0.0599982 	 -19.6403 	 
C 	 -43.6819 	 -1.30056 	 -17.8761 	 
H 	 -42.9542 	 -0.949299 	 -17.2393 	 
H 	 -43.9264 	 -2.32097 	 -17.5586 	 
C 	 -44.9142 	 -0.473618 	 -17.4741 	 
H 	 -44.9192 	 0.512155 	 -17.8533 	 
H 	 -45.1288 	 -0.44951 	 -16.4142 	 
H 	 -45.7043 	 -0.973181 	 -18.0242 	 
H 	 -44.0861 	 -3.27894 	 -25.2464 	 
H 	 -38.8696 	 -2.83199 	 -18.7736 	 
