34

S 	 -122.183 	 31.3837 	 -114.571 	 
C 	 -120.415 	 31.3611 	 -114.855 	 
C 	 -119.8 	 31.887 	 -113.709 	 
C 	 -120.644 	 32.2068 	 -112.645 	 
C 	 -122.045 	 32.1785 	 -112.953 	 
H 	 -120.202 	 32.4897 	 -111.713 	 
C 	 -118.293 	 31.9425 	 -113.599 	 
H 	 -118.156 	 32.4884 	 -112.637 	 
H 	 -117.993 	 32.6468 	 -114.377 	 
C 	 -117.443 	 30.6604 	 -113.704 	 
H 	 -117.8 	 30.1794 	 -114.628 	 
H 	 -116.418 	 30.904 	 -114.006 	 
C 	 -117.471 	 29.7715 	 -112.48 	 
H 	 -116.982 	 30.1504 	 -111.604 	 
H 	 -118.43 	 29.5843 	 -112.241 	 
H 	 -116.94 	 28.8099 	 -112.672 	 
S 	 -124.68 	 31.4647 	 -112.235 	 
C 	 -125.446 	 32.3057 	 -110.939 	 
C 	 -124.556 	 33.0427 	 -110.163 	 
C 	 -123.248 	 33.0591 	 -110.746 	 
C 	 -123.178 	 32.3898 	 -111.968 	 
H 	 -124.888 	 33.5407 	 -109.28 	 
C 	 -122.042 	 33.697 	 -110.09 	 
H 	 -122.428 	 34.4582 	 -109.393 	 
H 	 -121.453 	 34.2478 	 -110.827 	 
C 	 -121.094 	 32.7379 	 -109.263 	 
H 	 -120.152 	 33.1815 	 -109.114 	 
H 	 -120.835 	 31.8623 	 -109.834 	 
C 	 -121.661 	 32.0977 	 -108 	 
H 	 -120.807 	 31.4917 	 -107.632 	 
H 	 -122.626 	 31.5599 	 -108.145 	 
H 	 -121.933 	 32.8249 	 -107.233 	 
H 	 -119.852 	 30.9522 	 -115.674 	 
H 	 -126.398 	 31.9917 	 -110.565 	 
