34

S 	 -140.217 	 10.6299 	 3.88466 	 
C 	 -140.044 	 11.1946 	 2.28465 	 
C 	 -140.384 	 10.2225 	 1.34274 	 
C 	 -140.758 	 9.00597 	 1.99679 	 
C 	 -140.939 	 9.13576 	 3.35663 	 
H 	 -141.074 	 8.12837 	 1.423 	 
C 	 -140.127 	 10.4201 	 -0.117502 	 
H 	 -139.663 	 9.47728 	 -0.519016 	 
H 	 -139.429 	 11.1903 	 -0.256375 	 
C 	 -141.29 	 10.7698 	 -0.963567 	 
H 	 -142.181 	 10.3419 	 -0.560303 	 
H 	 -141.32 	 11.8248 	 -0.931394 	 
C 	 -141.085 	 10.4722 	 -2.46696 	 
H 	 -140.92 	 9.41017 	 -2.63469 	 
H 	 -142.048 	 10.6944 	 -2.97034 	 
H 	 -140.245 	 11.0441 	 -2.87982 	 
S 	 -140.179 	 7.53394 	 5.43899 	 
C 	 -141.248 	 6.2823 	 6.02013 	 
C 	 -142.392 	 6.25725 	 5.25919 	 
C 	 -142.487 	 7.26803 	 4.23904 	 
C 	 -141.35 	 8.0881 	 4.28793 	 
H 	 -143.129 	 5.46388 	 5.38365 	 
C 	 -143.798 	 7.5058 	 3.36596 	 
H 	 -143.783 	 6.82476 	 2.51317 	 
H 	 -143.805 	 8.55283 	 3.06664 	 
C 	 -145.073 	 7.40342 	 4.16814 	 
H 	 -145.012 	 7.74172 	 5.18576 	 
H 	 -145.272 	 6.38701 	 4.33758 	 
C 	 -146.318 	 8.11667 	 3.54228 	 
H 	 -147.236 	 7.99615 	 4.19112 	 
H 	 -146.536 	 7.6703 	 2.60373 	 
H 	 -146.166 	 9.20585 	 3.44464 	 
H 	 -139.549 	 12.1773 	 2.07714 	 
H 	 -140.938 	 5.62111 	 6.84232 	 
