34

S 	 -104.134 	 20.1747 	 -111.707 	 
C 	 -103.854 	 20.1709 	 -109.946 	 
C 	 -104.326 	 21.3151 	 -109.333 	 
C 	 -104.932 	 22.1068 	 -110.339 	 
C 	 -105.027 	 21.685 	 -111.621 	 
H 	 -105.445 	 23.035 	 -110.119 	 
C 	 -104.404 	 21.5996 	 -107.854 	 
H 	 -104.488 	 20.589 	 -107.482 	 
H 	 -105.327 	 22.0835 	 -107.539 	 
C 	 -103.226 	 22.3882 	 -107.193 	 
H 	 -103.267 	 22.4083 	 -106.114 	 
H 	 -102.25 	 21.9406 	 -107.461 	 
C 	 -103.201 	 23.8374 	 -107.61 	 
H 	 -104.158 	 24.3383 	 -107.435 	 
H 	 -102.362 	 24.4447 	 -107.275 	 
H 	 -103.047 	 23.9129 	 -108.639 	 
S 	 -106.701 	 21.3935 	 -113.768 	 
C 	 -107.029 	 22.7804 	 -114.736 	 
C 	 -106.204 	 23.8545 	 -114.488 	 
C 	 -105.367 	 23.5834 	 -113.36 	 
C 	 -105.595 	 22.3218 	 -112.811 	 
H 	 -106.266 	 24.8347 	 -114.963 	 
C 	 -104.563 	 24.6887 	 -112.568 	 
H 	 -104.07 	 25.3306 	 -113.316 	 
H 	 -103.919 	 24.1566 	 -111.816 	 
C 	 -105.509 	 25.7008 	 -111.89 	 
H 	 -106.236 	 25.3542 	 -111.179 	 
H 	 -106.142 	 26.2109 	 -112.631 	 
C 	 -104.789 	 26.8845 	 -111.218 	 
H 	 -105.468 	 27.5489 	 -110.753 	 
H 	 -104.212 	 27.56 	 -111.907 	 
H 	 -104.152 	 26.5487 	 -110.418 	 
H 	 -103.567 	 19.2618 	 -109.357 	 
H 	 -107.719 	 22.7592 	 -115.547 	 
