34

S 	 -109.532 	 63.8697 	 -15.2706 	 
C 	 -110.469 	 64.7971 	 -14.1219 	 
C 	 -109.849 	 64.988 	 -12.8843 	 
C 	 -108.584 	 64.4266 	 -12.8975 	 
C 	 -108.292 	 63.6686 	 -14.0639 	 
H 	 -107.941 	 64.3427 	 -12.0897 	 
C 	 -110.359 	 65.786 	 -11.6435 	 
H 	 -110.686 	 65.0724 	 -10.8222 	 
H 	 -111.293 	 66.3145 	 -11.9771 	 
C 	 -109.358 	 66.7867 	 -11.044 	 
H 	 -108.339 	 66.3757 	 -10.6965 	 
H 	 -109.154 	 67.3803 	 -11.9251 	 
C 	 -110.113 	 67.5475 	 -9.8914 	 
H 	 -111.029 	 68.0591 	 -10.2361 	 
H 	 -110.196 	 67.0076 	 -8.95562 	 
H 	 -109.438 	 68.3703 	 -9.6982 	 
S 	 -105.613 	 62.8419 	 -14.8917 	 
C 	 -105.231 	 61.1724 	 -14.8743 	 
C 	 -106.214 	 60.4276 	 -14.261 	 
C 	 -107.374 	 61.1695 	 -13.8394 	 
C 	 -107.237 	 62.5725 	 -14.1224 	 
H 	 -106.111 	 59.3845 	 -14.2254 	 
C 	 -108.602 	 60.4704 	 -13.1597 	 
H 	 -108.59 	 59.4204 	 -13.2911 	 
H 	 -109.505 	 60.9083 	 -13.6961 	 
C 	 -108.861 	 60.833 	 -11.6694 	 
H 	 -109.545 	 60.1163 	 -11.3438 	 
H 	 -109.317 	 61.8422 	 -11.6026 	 
C 	 -107.593 	 60.695 	 -10.7198 	 
H 	 -107.868 	 60.7025 	 -9.65983 	 
H 	 -106.938 	 61.5227 	 -10.9207 	 
H 	 -107.072 	 59.8137 	 -10.8278 	 
H 	 -111.477 	 65.1283 	 -14.3368 	 
H 	 -104.289 	 60.6756 	 -15.1988 	 
