34

S 	 -23.4435 	 -33.2138 	 -92.2215 	 
C 	 -22.2072 	 -34.2938 	 -92.8675 	 
C 	 -21.9266 	 -34.077 	 -94.207 	 
C 	 -22.8071 	 -33.0912 	 -94.7653 	 
C 	 -23.4312 	 -32.386 	 -93.7708 	 
H 	 -22.8147 	 -32.7682 	 -95.7858 	 
C 	 -21.003 	 -34.9643 	 -94.9884 	 
H 	 -21.5642 	 -35.7186 	 -95.4541 	 
H 	 -20.3714 	 -35.5265 	 -94.2688 	 
C 	 -19.9337 	 -34.2134 	 -95.8909 	 
H 	 -20.3211 	 -33.3159 	 -96.4089 	 
H 	 -19.1211 	 -33.8698 	 -95.2229 	 
C 	 -19.3462 	 -35.1662 	 -96.9585 	 
H 	 -18.9086 	 -36.0288 	 -96.3857 	 
H 	 -20.1099 	 -35.5375 	 -97.6072 	 
H 	 -18.6444 	 -34.642 	 -97.5678 	 
S 	 -25.9639 	 -31.5642 	 -94.4068 	 
C 	 -26.2314 	 -29.8838 	 -94.3226 	 
C 	 -25.1755 	 -29.1473 	 -93.9325 	 
C 	 -24.0037 	 -29.8842 	 -93.8138 	 
C 	 -24.2977 	 -31.2458 	 -93.999 	 
H 	 -25.188 	 -28.0396 	 -93.8881 	 
C 	 -22.6139 	 -29.4279 	 -93.4401 	 
H 	 -21.9288 	 -30.2722 	 -93.493 	 
H 	 -22.7094 	 -29.2025 	 -92.4029 	 
C 	 -22.0044 	 -28.1963 	 -94.2656 	 
H 	 -21.0399 	 -28.0317 	 -93.8955 	 
H 	 -22.5544 	 -27.282 	 -93.9664 	 
C 	 -22.1933 	 -28.3352 	 -95.8241 	 
H 	 -23.2225 	 -28.494 	 -96.0027 	 
H 	 -21.6532 	 -29.1172 	 -96.2942 	 
H 	 -21.9788 	 -27.3978 	 -96.3307 	 
H 	 -21.6503 	 -35.0358 	 -92.2825 	 
H 	 -27.1786 	 -29.5615 	 -94.3027 	 
