34

S 	 -38.6059 	 -42.0462 	 -76.3294 	 
C 	 -39.2724 	 -40.4265 	 -75.9331 	 
C 	 -38.3707 	 -39.4631 	 -75.9402 	 
C 	 -37.085 	 -39.9875 	 -76.268 	 
C 	 -37.0254 	 -41.3491 	 -76.6048 	 
H 	 -36.219 	 -39.3394 	 -76.2823 	 
C 	 -38.4977 	 -38.006 	 -75.4652 	 
H 	 -39.5119 	 -37.6664 	 -75.5861 	 
H 	 -37.8709 	 -37.4143 	 -76.2201 	 
C 	 -38.14 	 -37.5911 	 -74.0285 	 
H 	 -38.7119 	 -38.166 	 -73.3933 	 
H 	 -37.1047 	 -37.9679 	 -73.9569 	 
C 	 -38.3158 	 -36.0832 	 -73.7975 	 
H 	 -37.5988 	 -35.5322 	 -74.5063 	 
H 	 -39.3576 	 -35.776 	 -73.8621 	 
H 	 -38.057 	 -35.8339 	 -72.774 	 
S 	 -36.0613 	 -43.8249 	 -77.2444 	 
C 	 -34.4234 	 -44.0507 	 -77.775 	 
C 	 -33.6994 	 -42.8728 	 -77.6345 	 
C 	 -34.511 	 -41.8425 	 -77.1313 	 
C 	 -35.8748 	 -42.1229 	 -77.0102 	 
H 	 -32.6663 	 -42.8164 	 -77.7527 	 
C 	 -33.8083 	 -40.5688 	 -76.7812 	 
H 	 -32.7627 	 -40.7993 	 -76.7008 	 
H 	 -34.1673 	 -40.2232 	 -75.7559 	 
C 	 -33.8717 	 -39.4229 	 -77.8831 	 
H 	 -34.9406 	 -39.2812 	 -78.1684 	 
H 	 -33.381 	 -39.6949 	 -78.8048 	 
C 	 -33.3601 	 -38.0743 	 -77.3988 	 
H 	 -32.3056 	 -38.1739 	 -77.3439 	 
H 	 -33.8445 	 -37.6683 	 -76.4554 	 
H 	 -33.6313 	 -37.2371 	 -78.1073 	 
H 	 -40.1388 	 -40.2036 	 -75.4162 	 
H 	 -33.9901 	 -44.9464 	 -78.1974 	 
