34

S 	 32.4668 	 -32.2606 	 -133.814 	 
C 	 34.1598 	 -31.8634 	 -133.836 	 
C 	 34.8358 	 -32.1924 	 -132.686 	 
C 	 33.9736 	 -32.9338 	 -131.803 	 
C 	 32.6017 	 -32.9591 	 -132.203 	 
H 	 34.2888 	 -33.366 	 -130.852 	 
C 	 36.3518 	 -31.9921 	 -132.401 	 
H 	 36.404 	 -31.5689 	 -131.432 	 
H 	 36.8645 	 -31.3473 	 -133.102 	 
C 	 37.1851 	 -33.2 	 -132.128 	 
H 	 38.012 	 -32.8054 	 -131.541 	 
H 	 36.6353 	 -33.7204 	 -131.309 	 
C 	 37.6239 	 -34.0525 	 -133.238 	 
H 	 38.0867 	 -34.9286 	 -132.918 	 
H 	 36.8107 	 -34.4549 	 -133.815 	 
H 	 38.2081 	 -33.5418 	 -133.904 	 
S 	 31.3354 	 -35.3988 	 -131.853 	 
C 	 30.0233 	 -35.5166 	 -130.765 	 
C 	 29.7294 	 -34.3209 	 -130.166 	 
C 	 30.6603 	 -33.3329 	 -130.458 	 
C 	 31.4777 	 -33.6212 	 -131.565 	 
H 	 28.9058 	 -34.3545 	 -129.517 	 
C 	 30.5916 	 -32.0309 	 -129.689 	 
H 	 31.5616 	 -31.8635 	 -129.119 	 
H 	 29.8531 	 -32.0901 	 -128.875 	 
C 	 30.3529 	 -30.8616 	 -130.541 	 
H 	 29.3577 	 -30.8583 	 -130.946 	 
H 	 30.9803 	 -30.7601 	 -131.417 	 
C 	 30.367 	 -29.497 	 -129.749 	 
H 	 30.4018 	 -28.6337 	 -130.398 	 
H 	 31.3523 	 -29.42 	 -129.213 	 
H 	 29.4068 	 -29.4236 	 -129.17 	 
H 	 34.5704 	 -31.0937 	 -134.497 	 
H 	 29.3746 	 -36.3908 	 -130.618 	 
