34

S 	 39.9074 	 -1.92279 	 -120.153 	 
C 	 40.7586 	 -3.48391 	 -120.198 	 
C 	 39.9563 	 -4.57356 	 -119.865 	 
C 	 38.5408 	 -4.13427 	 -119.504 	 
C 	 38.3866 	 -2.75617 	 -119.659 	 
H 	 37.6956 	 -4.74559 	 -119.238 	 
C 	 40.284 	 -6.05361 	 -119.662 	 
H 	 41.1958 	 -6.34298 	 -120.155 	 
H 	 39.4581 	 -6.53345 	 -120.191 	 
C 	 40.2729 	 -6.61802 	 -118.226 	 
H 	 41.1362 	 -6.24165 	 -117.748 	 
H 	 39.3328 	 -6.43678 	 -117.631 	 
C 	 40.5161 	 -8.13872 	 -118.218 	 
H 	 40.2487 	 -8.42854 	 -117.171 	 
H 	 39.7085 	 -8.63545 	 -118.856 	 
H 	 41.5531 	 -8.49699 	 -118.524 	 
S 	 37.2975 	 -0.467351 	 -118.603 	 
C 	 35.5379 	 -0.417433 	 -118.516 	 
C 	 34.9175 	 -1.48409 	 -119.082 	 
C 	 35.8487 	 -2.37913 	 -119.651 	 
C 	 37.1577 	 -1.99851 	 -119.47 	 
H 	 33.8818 	 -1.68085 	 -118.971 	 
C 	 35.3383 	 -3.57199 	 -120.472 	 
H 	 36.182 	 -4.00152 	 -121.114 	 
H 	 34.639 	 -3.22503 	 -121.242 	 
C 	 34.6528 	 -4.78339 	 -119.706 	 
H 	 33.8915 	 -4.32442 	 -119.093 	 
H 	 35.4321 	 -5.07311 	 -119.049 	 
C 	 34.1266 	 -5.89056 	 -120.63 	 
H 	 33.2433 	 -5.48084 	 -121.095 	 
H 	 33.795 	 -6.79851 	 -120.169 	 
H 	 34.93 	 -6.23234 	 -121.377 	 
H 	 41.7513 	 -3.7658 	 -120.555 	 
H 	 35.0491 	 0.174893 	 -117.779 	 
