34

S 	 -69.3528 	 -44.7669 	 -89.1867 	 
C 	 -68.7488 	 -43.8392 	 -90.5005 	 
C 	 -67.7671 	 -44.49 	 -91.308 	 
C 	 -67.5963 	 -45.8117 	 -90.7991 	 
C 	 -68.362 	 -46.1402 	 -89.6429 	 
H 	 -66.7583 	 -46.4887 	 -91.1528 	 
C 	 -67.0508 	 -43.7965 	 -92.496 	 
H 	 -67.739 	 -43.3385 	 -93.1625 	 
H 	 -66.6548 	 -44.5435 	 -93.173 	 
C 	 -65.8228 	 -43.028 	 -92.0166 	 
H 	 -65.5457 	 -42.1762 	 -92.7669 	 
H 	 -65.9893 	 -42.7124 	 -90.9621 	 
C 	 -64.5002 	 -43.8461 	 -91.9702 	 
H 	 -64.7999 	 -44.8502 	 -91.7236 	 
H 	 -64.0406 	 -43.8124 	 -92.9614 	 
H 	 -63.8647 	 -43.5413 	 -91.173 	 
S 	 -67.9677 	 -46.9851 	 -86.9937 	 
C 	 -67.7719 	 -48.6466 	 -86.6161 	 
C 	 -67.565 	 -49.387 	 -87.7865 	 
C 	 -67.8597 	 -48.6785 	 -89.0029 	 
C 	 -68.0642 	 -47.3122 	 -88.717 	 
H 	 -67.2502 	 -50.4775 	 -87.7551 	 
C 	 -67.7969 	 -49.3178 	 -90.3886 	 
H 	 -67.2117 	 -50.3154 	 -90.4381 	 
H 	 -67.1694 	 -48.6709 	 -91.0181 	 
C 	 -69.1097 	 -49.3597 	 -91.222 	 
H 	 -68.8954 	 -49.7221 	 -92.2395 	 
H 	 -69.5003 	 -48.3728 	 -91.3391 	 
C 	 -70.0772 	 -50.2258 	 -90.5314 	 
H 	 -69.8399 	 -51.3137 	 -90.6198 	 
H 	 -71.0531 	 -50.0707 	 -90.9743 	 
H 	 -70.153 	 -50.0856 	 -89.4174 	 
H 	 -69.2365 	 -42.9356 	 -90.7582 	 
H 	 -67.5387 	 -48.9669 	 -85.6059 	 
