34

S 	 -51.7272 	 12.7912 	 23.3996 	 
C 	 -51.1959 	 11.2615 	 22.9714 	 
C 	 -51.976 	 10.7333 	 21.9268 	 
C 	 -53.0734 	 11.5568 	 21.5182 	 
C 	 -53.0496 	 12.7911 	 22.1712 	 
H 	 -53.7936 	 11.2421 	 20.7841 	 
C 	 -51.7811 	 9.38183 	 21.2861 	 
H 	 -50.8598 	 9.53759 	 20.6865 	 
H 	 -52.5695 	 9.15751 	 20.5462 	 
C 	 -51.6547 	 8.13426 	 22.2193 	 
H 	 -50.8014 	 8.27935 	 22.85 	 
H 	 -52.5112 	 7.99092 	 22.8424 	 
C 	 -51.4174 	 6.84136 	 21.4233 	 
H 	 -51.1173 	 6.0128 	 22.0553 	 
H 	 -52.3682 	 6.55134 	 21.0073 	 
H 	 -50.6801 	 7.02841 	 20.6399 	 
S 	 -54.5956 	 14.2121 	 20.4174 	 
C 	 -55.5576 	 15.543 	 20.9339 	 
C 	 -55.6288 	 15.5838 	 22.3197 	 
C 	 -54.5948 	 14.7583 	 22.8955 	 
C 	 -53.9684 	 13.9171 	 22.0212 	 
H 	 -56.2394 	 16.2528 	 22.9115 	 
C 	 -54.5682 	 14.6124 	 24.3998 	 
H 	 -54.2432 	 13.6553 	 24.7804 	 
H 	 -55.5981 	 14.607 	 24.7516 	 
C 	 -53.6902 	 15.7404 	 25.0506 	 
H 	 -54.084 	 16.6959 	 24.7714 	 
H 	 -52.6517 	 15.8326 	 24.701 	 
C 	 -53.57 	 15.667 	 26.5713 	 
H 	 -52.7718 	 16.3582 	 26.895 	 
H 	 -53.1909 	 14.6997 	 26.8424 	 
H 	 -54.5281 	 15.8063 	 27.1706 	 
H 	 -50.3877 	 10.7342 	 23.3921 	 
H 	 -56.1475 	 16.1718 	 20.2031 	 
