34

S 	 -49.9101 	 24.1938 	 28.2477 	 
C 	 -49.0322 	 25.4966 	 27.459 	 
C 	 -47.6479 	 25.2298 	 27.5392 	 
C 	 -47.4291 	 24.0593 	 28.246 	 
C 	 -48.5211 	 23.32 	 28.6673 	 
H 	 -46.4242 	 23.6006 	 28.3892 	 
C 	 -46.5104 	 26.0886 	 26.9202 	 
H 	 -45.7388 	 26.2026 	 27.6399 	 
H 	 -46.8717 	 27.0898 	 26.7419 	 
C 	 -45.8003 	 25.6199 	 25.6554 	 
H 	 -45.5209 	 24.5342 	 25.8271 	 
H 	 -46.554 	 25.6583 	 24.8342 	 
C 	 -44.5748 	 26.4771 	 25.279 	 
H 	 -43.8854 	 26.5036 	 26.1063 	 
H 	 -43.9545 	 25.9522 	 24.593 	 
H 	 -44.8917 	 27.4588 	 24.9763 	 
S 	 -48.989 	 20.5823 	 28.277 	 
C 	 -48.3925 	 19.4307 	 29.3304 	 
C 	 -47.6411 	 19.9848 	 30.3404 	 
C 	 -47.6444 	 21.3994 	 30.2992 	 
C 	 -48.3949 	 21.9292 	 29.1539 	 
H 	 -47.1673 	 19.4529 	 31.127 	 
C 	 -46.8749 	 22.2882 	 31.2373 	 
H 	 -47.1049 	 23.3308 	 31.0564 	 
H 	 -45.7719 	 22.189 	 31.1225 	 
C 	 -47.1558 	 21.9571 	 32.746 	 
H 	 -46.5525 	 22.5394 	 33.4578 	 
H 	 -46.8958 	 20.8891 	 32.9234 	 
C 	 -48.5875 	 22.1732 	 33.1758 	 
H 	 -49.3529 	 21.4595 	 32.8714 	 
H 	 -48.965 	 23.1358 	 32.9277 	 
H 	 -48.4309 	 22.234 	 34.2575 	 
H 	 -49.4396 	 26.3951 	 26.9326 	 
H 	 -48.6077 	 18.3922 	 29.2216 	 
