34

S 	 -34.4416 	 1.96394 	 10.7344 	 
C 	 -33.4478 	 1.38792 	 12.1166 	 
C 	 -34.1049 	 0.373227 	 12.8569 	 
C 	 -35.4411 	 0.112548 	 12.4024 	 
C 	 -35.8049 	 0.870828 	 11.2548 	 
H 	 -36.1626 	 -0.627154 	 12.8255 	 
C 	 -33.5156 	 -0.412562 	 14.0591 	 
H 	 -32.5281 	 -0.732734 	 13.8621 	 
H 	 -34.1311 	 -1.20569 	 14.2817 	 
C 	 -33.4303 	 0.488703 	 15.3581 	 
H 	 -32.8003 	 0.0862794 	 16.142 	 
H 	 -32.729 	 1.31908 	 15.1094 	 
C 	 -34.7289 	 0.956774 	 15.9977 	 
H 	 -35.2569 	 0.074723 	 16.3415 	 
H 	 -34.5687 	 1.57367 	 16.931 	 
H 	 -35.4005 	 1.52172 	 15.2667 	 
S 	 -37.0576 	 -0.197436 	 9.14925 	 
C 	 -38.7433 	 0.0286468 	 8.90737 	 
C 	 -39.2705 	 0.88747 	 9.85271 	 
C 	 -38.3327 	 1.19367 	 10.944 	 
C 	 -37.0644 	 0.832286 	 10.5876 	 
H 	 -40.2662 	 1.11665 	 9.80299 	 
C 	 -38.7208 	 1.95731 	 12.1828 	 
H 	 -38.9878 	 2.96009 	 11.8185 	 
H 	 -37.8419 	 2.05958 	 12.8334 	 
C 	 -39.8529 	 1.2787 	 12.9441 	 
H 	 -39.7947 	 0.233344 	 13.1063 	 
H 	 -40.7203 	 1.26939 	 12.3577 	 
C 	 -40.023 	 2.06723 	 14.2339 	 
H 	 -40.8053 	 1.65768 	 14.8121 	 
H 	 -40.3627 	 3.12917 	 13.987 	 
H 	 -39.1022 	 2.03688 	 14.8354 	 
H 	 -32.4848 	 1.78585 	 12.3837 	 
H 	 -39.1172 	 -0.523492 	 8.04522 	 
