34

S 	 33.1953 	 -36.6801 	 -126.624 	 
C 	 32.4341 	 -35.8718 	 -125.25 	 
C 	 31.5103 	 -34.9143 	 -125.69 	 
C 	 31.6239 	 -34.682 	 -127.065 	 
C 	 32.4594 	 -35.5678 	 -127.75 	 
H 	 30.924 	 -34.0765 	 -127.671 	 
C 	 30.4159 	 -34.2771 	 -124.857 	 
H 	 30.6159 	 -33.1572 	 -124.983 	 
H 	 30.4914 	 -34.3459 	 -123.763 	 
C 	 28.9687 	 -34.6871 	 -125.1 	 
H 	 28.2873 	 -34.1398 	 -124.434 	 
H 	 28.6136 	 -34.2674 	 -126.06 	 
C 	 28.769 	 -36.1826 	 -125.076 	 
H 	 29.4544 	 -36.7889 	 -125.751 	 
H 	 28.8357 	 -36.5283 	 -124.013 	 
H 	 27.7902 	 -36.5015 	 -125.319 	 
S 	 30.5775 	 -36.1173 	 -129.696 	 
C 	 31.0525 	 -35.6711 	 -131.278 	 
C 	 32.4256 	 -35.5824 	 -131.487 	 
C 	 33.1166 	 -35.7749 	 -130.267 	 
C 	 32.2364 	 -35.7986 	 -129.195 	 
H 	 32.8423 	 -35.4071 	 -132.463 	 
C 	 34.6165 	 -35.7229 	 -130.175 	 
H 	 34.9015 	 -36.0615 	 -131.087 	 
H 	 34.8493 	 -36.5475 	 -129.557 	 
C 	 35.1705 	 -34.3421 	 -129.839 	 
H 	 35.1357 	 -34.4556 	 -128.721 	 
H 	 34.5171 	 -33.4565 	 -129.991 	 
C 	 36.6041 	 -34.1202 	 -130.264 	 
H 	 36.9766 	 -33.1221 	 -130.091 	 
H 	 36.7368 	 -34.4115 	 -131.282 	 
H 	 37.2195 	 -34.7233 	 -129.61 	 
H 	 32.4716 	 -36.2902 	 -124.28 	 
H 	 30.3901 	 -35.5347 	 -132.104 	 
