34

S 	 44.696 	 -9.66565 	 -104.637 	 
C 	 46.0163 	 -9.22439 	 -105.743 	 
C 	 45.8112 	 -9.80407 	 -107.003 	 
C 	 44.4963 	 -10.4603 	 -107.132 	 
C 	 43.8285 	 -10.5193 	 -105.924 	 
H 	 44.1745 	 -10.9199 	 -108.022 	 
C 	 46.6762 	 -9.50618 	 -108.194 	 
H 	 47.1204 	 -8.55717 	 -107.869 	 
H 	 45.9115 	 -9.29454 	 -108.969 	 
C 	 47.7013 	 -10.6012 	 -108.567 	 
H 	 48.6649 	 -10.4606 	 -108.179 	 
H 	 47.484 	 -11.5993 	 -108.137 	 
C 	 47.7981 	 -10.6565 	 -110.127 	 
H 	 48.768 	 -11.0914 	 -110.343 	 
H 	 47.0744 	 -11.4174 	 -110.407 	 
H 	 47.7905 	 -9.6315 	 -110.62 	 
S 	 42.4357 	 -12.8759 	 -105.682 	 
C 	 40.7683 	 -12.8094 	 -105.169 	 
C 	 40.2371 	 -11.5119 	 -105.156 	 
C 	 41.2934 	 -10.6025 	 -105.595 	 
C 	 42.5645 	 -11.1357 	 -105.6 	 
H 	 39.2239 	 -11.236 	 -105.047 	 
C 	 40.8771 	 -9.10457 	 -105.633 	 
H 	 41.6387 	 -8.46376 	 -105.127 	 
H 	 39.9184 	 -9.16007 	 -105.113 	 
C 	 40.5348 	 -8.60578 	 -107.02 	 
H 	 40.2151 	 -7.51497 	 -106.946 	 
H 	 39.7305 	 -9.14753 	 -107.321 	 
C 	 41.7504 	 -8.72019 	 -108.004 	 
H 	 41.5586 	 -8.11685 	 -108.932 	 
H 	 41.9475 	 -9.7669 	 -108.382 	 
H 	 42.7165 	 -8.34059 	 -107.587 	 
H 	 46.8623 	 -8.60444 	 -105.508 	 
H 	 40.1708 	 -13.6657 	 -104.859 	 
