34

S 	 -108.463 	 49.4539 	 -6.01365 	 
C 	 -108.649 	 51.1592 	 -6.17851 	 
C 	 -107.43 	 51.7928 	 -6.34935 	 
C 	 -106.34 	 50.8554 	 -6.23976 	 
C 	 -106.718 	 49.5676 	 -6.04069 	 
H 	 -105.303 	 51.0333 	 -6.31641 	 
C 	 -107.135 	 53.3076 	 -6.50729 	 
H 	 -106.083 	 53.6151 	 -6.4481 	 
H 	 -107.504 	 53.8071 	 -5.54713 	 
C 	 -107.732 	 54.0854 	 -7.67118 	 
H 	 -107.478 	 55.1218 	 -7.60996 	 
H 	 -107.26 	 53.904 	 -8.62092 	 
C 	 -109.251 	 53.8889 	 -7.8462 	 
H 	 -109.678 	 53.6524 	 -6.94645 	 
H 	 -109.848 	 54.7823 	 -8.11904 	 
H 	 -109.375 	 53.1394 	 -8.62186 	 
S 	 -106.36 	 47.4383 	 -4.30252 	 
C 	 -104.974 	 46.3946 	 -4.49658 	 
C 	 -104.343 	 46.6181 	 -5.68745 	 
C 	 -104.911 	 47.7511 	 -6.39067 	 
C 	 -105.966 	 48.3408 	 -5.73197 	 
H 	 -103.397 	 46.0522 	 -5.82189 	 
C 	 -104.287 	 48.2077 	 -7.68929 	 
H 	 -103.223 	 47.9149 	 -7.76537 	 
H 	 -104.357 	 49.3005 	 -7.71143 	 
C 	 -105.105 	 47.7343 	 -8.89923 	 
H 	 -105.461 	 46.6945 	 -8.88712 	 
H 	 -104.345 	 47.9609 	 -9.72642 	 
C 	 -106.369 	 48.6225 	 -9.17976 	 
H 	 -107.189 	 48.5692 	 -8.48726 	 
H 	 -106.869 	 48.2921 	 -10.1358 	 
H 	 -106.12 	 49.6358 	 -9.21728 	 
H 	 -109.6 	 51.6602 	 -6.07103 	 
H 	 -104.651 	 45.6364 	 -3.84797 	 
