34

S 	 -114.525 	 60.3405 	 -29.8854 	 
C 	 -113.187 	 60.6823 	 -28.8305 	 
C 	 -113.542 	 61.6264 	 -27.8355 	 
C 	 -114.901 	 61.9733 	 -27.9116 	 
C 	 -115.559 	 61.4002 	 -28.9224 	 
H 	 -115.384 	 62.7485 	 -27.2477 	 
C 	 -112.683 	 62.3863 	 -26.818 	 
H 	 -113.308 	 63.3172 	 -26.7073 	 
H 	 -111.661 	 62.4433 	 -27.2895 	 
C 	 -112.452 	 61.6373 	 -25.4735 	 
H 	 -113.398 	 61.1369 	 -25.1945 	 
H 	 -111.707 	 60.8943 	 -25.6473 	 
C 	 -111.988 	 62.6341 	 -24.366 	 
H 	 -112.744 	 63.4182 	 -24.0682 	 
H 	 -112.009 	 61.994 	 -23.4644 	 
H 	 -110.993 	 63.0701 	 -24.5838 	 
S 	 -117.394 	 63.5253 	 -29.2254 	 
C 	 -118.83 	 63.2057 	 -30.1365 	 
C 	 -119.13 	 61.8527 	 -30.1025 	 
C 	 -118.035 	 61.0156 	 -29.6918 	 
C 	 -116.954 	 61.7789 	 -29.2525 	 
H 	 -120.189 	 61.5028 	 -30.3064 	 
C 	 -118.081 	 59.487 	 -29.7758 	 
H 	 -117.129 	 59.0593 	 -29.5915 	 
H 	 -118.31 	 59.1631 	 -30.8022 	 
C 	 -119.25 	 58.8535 	 -28.8998 	 
H 	 -119.147 	 57.748 	 -28.9358 	 
H 	 -120.293 	 59.1135 	 -29.2331 	 
C 	 -119.165 	 59.339 	 -27.412 	 
H 	 -119.885 	 58.665 	 -26.8244 	 
H 	 -119.492 	 60.4026 	 -27.3187 	 
H 	 -118.145 	 59.2104 	 -27.0545 	 
H 	 -112.161 	 60.2037 	 -28.919 	 
H 	 -119.566 	 63.9536 	 -30.3808 	 
