34

S 	 -100.47 	 67.5034 	 -8.81951 	 
C 	 -99.771 	 66.162 	 -7.94536 	 
C 	 -100.673 	 65.0816 	 -8.02864 	 
C 	 -101.832 	 65.2948 	 -8.84056 	 
C 	 -101.767 	 66.5106 	 -9.49482 	 
H 	 -102.622 	 64.5981 	 -9.08058 	 
C 	 -100.541 	 63.7007 	 -7.38971 	 
H 	 -99.9398 	 63.8854 	 -6.45668 	 
H 	 -99.8941 	 63.2475 	 -7.97953 	 
C 	 -101.796 	 62.819 	 -7.15867 	 
H 	 -102.552 	 63.4676 	 -6.65519 	 
H 	 -102.35 	 62.4389 	 -8.03168 	 
C 	 -101.405 	 61.5115 	 -6.37058 	 
H 	 -100.505 	 61.0313 	 -6.85464 	 
H 	 -101.161 	 61.8264 	 -5.40283 	 
H 	 -102.377 	 60.9188 	 -6.26879 	 
S 	 -102.242 	 68.0111 	 -11.8056 	 
C 	 -103.878 	 68.3276 	 -12.3262 	 
C 	 -104.802 	 67.589 	 -11.7044 	 
C 	 -104.195 	 66.881 	 -10.6057 	 
C 	 -102.843 	 67.0415 	 -10.4398 	 
H 	 -105.898 	 67.5638 	 -11.9353 	 
C 	 -105.021 	 66.0256 	 -9.69681 	 
H 	 -104.391 	 65.7176 	 -8.83437 	 
H 	 -105.377 	 65.2384 	 -10.2991 	 
C 	 -106.338 	 66.5294 	 -9.09934 	 
H 	 -106.762 	 65.6911 	 -8.48153 	 
H 	 -107.051 	 66.6644 	 -9.90892 	 
C 	 -106.25 	 67.7055 	 -8.08875 	 
H 	 -107.18 	 68.2034 	 -7.86132 	 
H 	 -105.556 	 68.4952 	 -8.42565 	 
H 	 -106.062 	 67.3144 	 -7.06878 	 
H 	 -98.9462 	 66.1865 	 -7.34936 	 
H 	 -104.019 	 68.7566 	 -13.2981 	 
