34

S 	 -121.388 	 62.871 	 -31.7384 	 
C 	 -121.339 	 64.1515 	 -32.9167 	 
C 	 -121.239 	 63.6269 	 -34.2049 	 
C 	 -121.344 	 62.1758 	 -34.2567 	 
C 	 -121.267 	 61.5942 	 -33.0075 	 
H 	 -121.359 	 61.502 	 -35.0893 	 
C 	 -121.205 	 64.4853 	 -35.4664 	 
H 	 -121.732 	 65.3741 	 -35.245 	 
H 	 -121.778 	 63.9076 	 -36.2041 	 
C 	 -119.832 	 64.8682 	 -35.8483 	 
H 	 -119.955 	 65.5103 	 -36.7434 	 
H 	 -119.435 	 65.5755 	 -35.1178 	 
C 	 -118.825 	 63.7027 	 -36.099 	 
H 	 -117.849 	 64.1403 	 -36.4417 	 
H 	 -118.665 	 63.195 	 -35.1519 	 
H 	 -119.212 	 63.0567 	 -36.8739 	 
S 	 -122.537 	 59.1976 	 -33.2592 	 
C 	 -121.714 	 57.7205 	 -33.0944 	 
C 	 -120.499 	 57.9308 	 -32.4711 	 
C 	 -120.162 	 59.32 	 -32.3497 	 
C 	 -121.19 	 60.16 	 -32.7008 	 
H 	 -119.968 	 57.0215 	 -32.1559 	 
C 	 -118.781 	 59.7446 	 -31.9123 	 
H 	 -118.222 	 58.8311 	 -31.5726 	 
H 	 -118.827 	 60.4311 	 -31.0606 	 
C 	 -117.922 	 60.3842 	 -32.9652 	 
H 	 -117.156 	 60.9847 	 -32.4247 	 
H 	 -118.469 	 61.1325 	 -33.5719 	 
C 	 -117.188 	 59.4822 	 -33.8945 	 
H 	 -116.482 	 60.0867 	 -34.4235 	 
H 	 -117.8 	 58.9992 	 -34.6355 	 
H 	 -116.783 	 58.6691 	 -33.2577 	 
H 	 -121.579 	 65.1807 	 -32.7382 	 
H 	 -122.153 	 56.7744 	 -33.3263 	 
