34

S 	 -49.4045 	 21.7531 	 29.4192 	 
C 	 -49.1674 	 20.3889 	 28.3847 	 
C 	 -50.2372 	 19.5032 	 28.455 	 
C 	 -51.2254 	 19.9085 	 29.3738 	 
C 	 -50.8568 	 21.0225 	 30.1488 	 
H 	 -52.0716 	 19.3259 	 29.6998 	 
C 	 -50.2795 	 18.1842 	 27.6885 	 
H 	 -50.9796 	 17.5489 	 28.2807 	 
H 	 -49.2835 	 17.811 	 27.8565 	 
C 	 -50.8217 	 18.2161 	 26.2361 	 
H 	 -50.0724 	 18.5766 	 25.553 	 
H 	 -50.9696 	 17.1537 	 25.965 	 
C 	 -52.1114 	 18.9744 	 25.9916 	 
H 	 -52.8989 	 18.5292 	 26.6783 	 
H 	 -52.0652 	 20.0294 	 26.2302 	 
H 	 -52.4208 	 18.8986 	 24.9807 	 
S 	 -50.5431 	 22.1999 	 32.5031 	 
C 	 -51.8579 	 22.5778 	 33.5574 	 
C 	 -53.0454 	 22.3829 	 32.8719 	 
C 	 -52.9012 	 21.8394 	 31.5338 	 
C 	 -51.5662 	 21.6905 	 31.2399 	 
H 	 -53.9894 	 22.5844 	 33.2988 	 
C 	 -54.0893 	 21.3959 	 30.6488 	 
H 	 -53.7496 	 21.2273 	 29.6662 	 
H 	 -54.6453 	 22.3017 	 30.5097 	 
C 	 -55.0909 	 20.2517 	 31.166 	 
H 	 -55.4327 	 20.441 	 32.1797 	 
H 	 -54.588 	 19.2452 	 31.1828 	 
C 	 -56.3998 	 20.1851 	 30.3209 	 
H 	 -57.0632 	 21.0624 	 30.5623 	 
H 	 -57.0721 	 19.3944 	 30.5735 	 
H 	 -56.1193 	 20.1329 	 29.2212 	 
H 	 -48.297 	 20.1199 	 27.7979 	 
H 	 -51.8215 	 23.0632 	 34.5021 	 
