34

S 	 -126.914 	 64.6533 	 -59.955 	 
C 	 -128.391 	 64.6297 	 -60.8163 	 
C 	 -129.326 	 63.8924 	 -60.1432 	 
C 	 -128.854 	 63.3912 	 -58.8908 	 
C 	 -127.501 	 63.6431 	 -58.6589 	 
H 	 -129.482 	 62.7761 	 -58.2081 	 
C 	 -130.71 	 63.5639 	 -60.6872 	 
H 	 -130.781 	 62.5538 	 -60.9744 	 
H 	 -130.971 	 64.2028 	 -61.5428 	 
C 	 -131.894 	 63.8529 	 -59.7859 	 
H 	 -132.779 	 63.5855 	 -60.3417 	 
H 	 -131.993 	 63.0182 	 -59.1098 	 
C 	 -131.972 	 65.3248 	 -59.202 	 
H 	 -131.748 	 65.9964 	 -60.0176 	 
H 	 -133.016 	 65.3257 	 -58.8206 	 
H 	 -131.28 	 65.584 	 -58.4125 	 
S 	 -125.138 	 64.0549 	 -57.4723 	 
C 	 -124.673 	 63.1436 	 -56.0276 	 
C 	 -125.597 	 62.2263 	 -55.6604 	 
C 	 -126.744 	 62.2491 	 -56.5463 	 
C 	 -126.679 	 63.2223 	 -57.5694 	 
H 	 -125.335 	 61.6528 	 -54.8118 	 
C 	 -127.837 	 61.209 	 -56.3981 	 
H 	 -128.742 	 61.7273 	 -56.3544 	 
H 	 -127.826 	 60.7144 	 -55.4427 	 
C 	 -127.814 	 60.1039 	 -57.4468 	 
H 	 -126.878 	 59.5821 	 -57.2828 	 
H 	 -127.839 	 60.6422 	 -58.3669 	 
C 	 -128.949 	 59.1742 	 -57.4296 	 
H 	 -128.979 	 58.8274 	 -56.3742 	 
H 	 -128.685 	 58.4417 	 -58.1844 	 
H 	 -129.871 	 59.7085 	 -57.6605 	 
H 	 -128.627 	 65.1525 	 -61.7758 	 
H 	 -123.756 	 63.3174 	 -55.5403 	 
