34

S 	 43.5802 	 -15.282 	 -105.335 	 
C 	 42.313 	 -16.1974 	 -106.097 	 
C 	 42.5625 	 -16.5764 	 -107.459 	 
C 	 43.842 	 -15.9691 	 -107.797 	 
C 	 44.4192 	 -15.1645 	 -106.861 	 
H 	 44.2093 	 -15.9304 	 -108.759 	 
C 	 41.6582 	 -17.3385 	 -108.433 	 
H 	 41.058 	 -16.5753 	 -108.998 	 
H 	 40.9149 	 -17.7436 	 -107.897 	 
C 	 42.3663 	 -18.3175 	 -109.434 	 
H 	 41.6362 	 -18.5883 	 -110.194 	 
H 	 43.0757 	 -17.8094 	 -110.02 	 
C 	 42.7222 	 -19.6324 	 -108.765 	 
H 	 42.009 	 -19.8896 	 -107.989 	 
H 	 42.7884 	 -20.42 	 -109.508 	 
H 	 43.7515 	 -19.6973 	 -108.333 	 
S 	 45.2453 	 -12.5484 	 -106.714 	 
C 	 46.7187 	 -12.1142 	 -107.534 	 
C 	 47.3607 	 -13.2124 	 -107.992 	 
C 	 46.6982 	 -14.49 	 -107.803 	 
C 	 45.5706 	 -14.2794 	 -107.031 	 
H 	 48.2907 	 -13.0285 	 -108.614 	 
C 	 47.4244 	 -15.7747 	 -108.28 	 
H 	 48.0027 	 -15.4283 	 -109.183 	 
H 	 46.6921 	 -16.5608 	 -108.613 	 
C 	 48.4861 	 -16.1855 	 -107.254 	 
H 	 49.3515 	 -15.5785 	 -107.221 	 
H 	 48.7892 	 -17.2628 	 -107.573 	 
C 	 48.0506 	 -16.4184 	 -105.839 	 
H 	 47.7422 	 -15.5022 	 -105.309 	 
H 	 48.8638 	 -16.8332 	 -105.29 	 
H 	 47.2832 	 -17.2064 	 -105.816 	 
H 	 41.459 	 -16.6092 	 -105.67 	 
H 	 47.0705 	 -11.1144 	 -107.748 	 
