34

S 	 -114.653 	 60.433 	 -79.0377 	 
C 	 -113.997 	 61.778 	 -79.9025 	 
C 	 -113.007 	 61.337 	 -80.7313 	 
C 	 -112.847 	 59.9255 	 -80.8328 	 
C 	 -113.776 	 59.2328 	 -80.0083 	 
H 	 -112.166 	 59.3661 	 -81.4924 	 
C 	 -112.117 	 62.2886 	 -81.5089 	 
H 	 -112.709 	 63.0036 	 -82.1243 	 
H 	 -111.482 	 61.8068 	 -82.1964 	 
C 	 -111.014 	 63.1192 	 -80.6633 	 
H 	 -110.548 	 63.9368 	 -81.1581 	 
H 	 -111.516 	 63.6603 	 -79.841 	 
C 	 -109.953 	 62.2498 	 -79.8769 	 
H 	 -109.189 	 61.6608 	 -80.4668 	 
H 	 -109.341 	 62.9432 	 -79.2743 	 
H 	 -110.376 	 61.4779 	 -79.1596 	 
S 	 -114.575 	 56.7479 	 -81.2013 	 
C 	 -114.871 	 55.4227 	 -80.1494 	 
C 	 -114.734 	 55.7666 	 -78.8106 	 
C 	 -114.018 	 57.0505 	 -78.6565 	 
C 	 -113.965 	 57.7966 	 -79.8487 	 
H 	 -115.008 	 55.007 	 -78.0695 	 
C 	 -113.666 	 57.618 	 -77.2711 	 
H 	 -113.724 	 56.7715 	 -76.5888 	 
H 	 -114.292 	 58.397 	 -77.0539 	 
C 	 -112.224 	 58.0703 	 -77.0074 	 
H 	 -111.884 	 58.845 	 -77.7035 	 
H 	 -111.461 	 57.3768 	 -77.1969 	 
C 	 -111.975 	 58.4855 	 -75.5414 	 
H 	 -112.599 	 59.3342 	 -75.2708 	 
H 	 -110.995 	 58.7861 	 -75.3965 	 
H 	 -112.186 	 57.6862 	 -74.7814 	 
H 	 -114.077 	 62.7398 	 -79.5071 	 
H 	 -115.48 	 54.5441 	 -80.4753 	 
