34

S 	 -42.8963 	 -7.3661 	 8.24403 	 
C 	 -41.9114 	 -7.04221 	 6.82942 	 
C 	 -41.5026 	 -5.72767 	 6.73461 	 
C 	 -42.0669 	 -4.94981 	 7.75178 	 
C 	 -42.9574 	 -5.62831 	 8.57222 	 
H 	 -42.0751 	 -3.87552 	 7.77518 	 
C 	 -40.7045 	 -5.21274 	 5.54802 	 
H 	 -40.2802 	 -5.97936 	 4.95194 	 
H 	 -39.931 	 -4.63163 	 5.99395 	 
C 	 -41.4999 	 -4.35763 	 4.54325 	 
H 	 -41.1364 	 -4.39919 	 3.5157 	 
H 	 -42.5024 	 -4.67491 	 4.46044 	 
C 	 -41.5711 	 -2.81189 	 4.77004 	 
H 	 -42.2755 	 -2.36543 	 4.09416 	 
H 	 -41.8923 	 -2.46381 	 5.78457 	 
H 	 -40.5938 	 -2.38868 	 4.61023 	 
S 	 -45.5522 	 -5.29563 	 9.33801 	 
C 	 -46.0089 	 -4.36686 	 10.7428 	 
C 	 -44.8507 	 -3.88644 	 11.3477 	 
C 	 -43.5974 	 -4.26347 	 10.7514 	 
C 	 -43.8168 	 -5.07449 	 9.64177 	 
H 	 -44.9198 	 -3.23509 	 12.1372 	 
C 	 -42.2552 	 -3.79641 	 11.3051 	 
H 	 -41.4284 	 -4.25945 	 10.8065 	 
H 	 -42.2523 	 -4.165 	 12.3152 	 
C 	 -42.2118 	 -2.25036 	 11.2102 	 
H 	 -42.846 	 -1.85828 	 11.961 	 
H 	 -42.6719 	 -2.10632 	 10.22 	 
C 	 -40.8017 	 -1.61592 	 11.4062 	 
H 	 -40.3655 	 -1.87899 	 12.3543 	 
H 	 -40.8327 	 -0.549803 	 11.2309 	 
H 	 -40.0565 	 -2.03024 	 10.6833 	 
H 	 -41.8618 	 -7.70793 	 6.01079 	 
H 	 -47.0102 	 -4.12002 	 10.9965 	 
