34

S 	 -31.2765 	 10.6456 	 14.3228 	 
C 	 -31.5096 	 12.1116 	 13.4024 	 
C 	 -32.7943 	 12.4644 	 13.257 	 
C 	 -33.6699 	 11.5844 	 14.0133 	 
C 	 -33.0109 	 10.5179 	 14.5755 	 
H 	 -34.729 	 11.7228 	 14.05 	 
C 	 -33.2722 	 13.524 	 12.2893 	 
H 	 -34.0759 	 13.0843 	 11.6917 	 
H 	 -32.4277 	 13.6561 	 11.5659 	 
C 	 -33.8408 	 14.7994 	 12.9707 	 
H 	 -34.3527 	 15.3546 	 12.1694 	 
H 	 -34.7208 	 14.5311 	 13.5441 	 
C 	 -32.7736 	 15.6774 	 13.6572 	 
H 	 -33.2848 	 16.522 	 14.1218 	 
H 	 -32.3018 	 15.1013 	 14.4575 	 
H 	 -32.0392 	 16.0862 	 12.9605 	 
S 	 -33.0788 	 9.27813 	 17.0275 	 
C 	 -34.2183 	 7.93087 	 17.2229 	 
C 	 -34.7731 	 7.5529 	 16.0643 	 
C 	 -34.5407 	 8.45392 	 15.0045 	 
C 	 -33.5941 	 9.37851 	 15.3178 	 
H 	 -35.4092 	 6.7132 	 16.0407 	 
C 	 -35.3298 	 8.36629 	 13.7422 	 
H 	 -35.3074 	 7.36591 	 13.3485 	 
H 	 -34.8793 	 8.97038 	 13.0023 	 
C 	 -36.7223 	 9.06941 	 13.895 	 
H 	 -36.6498 	 10.0097 	 14.3181 	 
H 	 -37.3209 	 8.44563 	 14.5146 	 
C 	 -37.3892 	 9.26853 	 12.5433 	 
H 	 -37.67 	 8.29666 	 12.1681 	 
H 	 -36.7682 	 9.67323 	 11.7312 	 
H 	 -38.1895 	 9.89353 	 12.6678 	 
H 	 -30.7034 	 12.6062 	 12.8468 	 
H 	 -34.195 	 7.36115 	 18.129 	 
