34

S 	 45.8085 	 -18.9008 	 -110.615 	 
C 	 45.7225 	 -18.5618 	 -108.947 	 
C 	 45.3452 	 -19.685 	 -108.226 	 
C 	 45.0017 	 -20.7542 	 -109.114 	 
C 	 45.2082 	 -20.4948 	 -110.482 	 
H 	 44.7244 	 -21.7044 	 -108.754 	 
C 	 45.2188 	 -19.7799 	 -106.742 	 
H 	 45.3403 	 -20.8501 	 -106.425 	 
H 	 44.1958 	 -19.5207 	 -106.538 	 
C 	 46.1858 	 -18.9054 	 -105.886 	 
H 	 47.2269 	 -19.2438 	 -105.979 	 
H 	 46.262 	 -17.8692 	 -106.159 	 
C 	 45.7901 	 -19.0623 	 -104.394 	 
H 	 44.7519 	 -19.2837 	 -104.266 	 
H 	 46.3453 	 -19.8342 	 -103.931 	 
H 	 46.0175 	 -18.2002 	 -103.768 	 
S 	 46.4936 	 -21.8863 	 -112.541 	 
C 	 45.5504 	 -23.0945 	 -113.367 	 
C 	 44.2587 	 -23.2597 	 -112.861 	 
C 	 43.9588 	 -22.3421 	 -111.798 	 
C 	 45.0247 	 -21.4527 	 -111.573 	 
H 	 43.5983 	 -23.9852 	 -113.341 	 
C 	 42.5297 	 -22.1671 	 -111.32 	 
H 	 42.4947 	 -21.9739 	 -110.258 	 
H 	 41.931 	 -23.0696 	 -111.565 	 
C 	 41.7646 	 -21.0315 	 -111.94 	 
H 	 42.3192 	 -20.7635 	 -112.859 	 
H 	 41.8533 	 -20.1853 	 -111.258 	 
C 	 40.2298 	 -21.2101 	 -112.042 	 
H 	 39.7432 	 -21.154 	 -111.067 	 
H 	 39.9141 	 -22.1593 	 -112.49 	 
H 	 39.8197 	 -20.4383 	 -112.692 	 
H 	 46.3226 	 -17.771 	 -108.471 	 
H 	 45.9192 	 -23.6622 	 -114.191 	 
