34

S 	 20.5902 	 -24.9962 	 -118.418 	 
C 	 22.0862 	 -25.6309 	 -119.142 	 
C 	 23.1992 	 -25.0196 	 -118.628 	 
C 	 22.8794 	 -23.9931 	 -117.66 	 
C 	 21.5281 	 -23.9102 	 -117.517 	 
H 	 23.5734 	 -23.3037 	 -117.165 	 
C 	 24.661 	 -25.2634 	 -119.016 	 
H 	 24.7678 	 -25.4564 	 -120.089 	 
H 	 25.0773 	 -26.1864 	 -118.519 	 
C 	 25.6954 	 -24.1706 	 -118.635 	 
H 	 25.2717 	 -23.2175 	 -118.734 	 
H 	 25.9906 	 -24.1471 	 -117.617 	 
C 	 26.9699 	 -24.3026 	 -119.505 	 
H 	 27.7775 	 -23.6724 	 -119.169 	 
H 	 27.378 	 -25.3456 	 -119.355 	 
H 	 26.7385 	 -24.0576 	 -120.545 	 
S 	 20.5609 	 -23.4156 	 -115.042 	 
C 	 19.5127 	 -22.1232 	 -114.689 	 
C 	 19.39 	 -21.309 	 -115.793 	 
C 	 20.2578 	 -21.7159 	 -116.893 	 
C 	 20.8492 	 -22.9503 	 -116.692 	 
H 	 18.7046 	 -20.403 	 -115.759 	 
C 	 20.1218 	 -20.997 	 -118.243 	 
H 	 19.0774 	 -21.0157 	 -118.622 	 
H 	 20.6859 	 -21.6769 	 -118.927 	 
C 	 20.7327 	 -19.6112 	 -118.435 	 
H 	 21.8472 	 -19.6578 	 -118.364 	 
H 	 20.3728 	 -18.9212 	 -117.706 	 
C 	 20.4515 	 -19.1869 	 -119.909 	 
H 	 20.76 	 -18.1593 	 -120.117 	 
H 	 19.4146 	 -19.2814 	 -120.22 	 
H 	 20.9342 	 -19.8824 	 -120.628 	 
H 	 22.0733 	 -26.4539 	 -119.858 	 
H 	 19.094 	 -21.8035 	 -113.805 	 
