34

S 	 31.711 	 -28.4116 	 -118.192 	 
C 	 32.3115 	 -27.0262 	 -117.358 	 
C 	 33.6641 	 -27.0403 	 -117.232 	 
C 	 34.1997 	 -28.2683 	 -117.745 	 
C 	 33.2892 	 -29.1696 	 -118.236 	 
H 	 35.2107 	 -28.4613 	 -117.688 	 
C 	 34.5105 	 -26.0306 	 -116.356 	 
H 	 33.7353 	 -25.3654 	 -115.829 	 
H 	 35.1041 	 -25.4482 	 -117.052 	 
C 	 35.572 	 -26.6937 	 -115.41 	 
H 	 36.2065 	 -27.3969 	 -115.871 	 
H 	 36.1535 	 -25.8586 	 -114.981 	 
C 	 34.8359 	 -27.4373 	 -114.299 	 
H 	 35.4381 	 -27.5164 	 -113.474 	 
H 	 33.9488 	 -26.9318 	 -113.907 	 
H 	 34.6089 	 -28.4834 	 -114.556 	 
S 	 32.8534 	 -30.86 	 -120.336 	 
C 	 32.9029 	 -32.609 	 -120.114 	 
C 	 33.3765 	 -32.8912 	 -118.827 	 
C 	 33.6458 	 -31.7049 	 -118.041 	 
C 	 33.4729 	 -30.525 	 -118.728 	 
H 	 33.393 	 -33.915 	 -118.483 	 
C 	 34.0695 	 -31.8184 	 -116.564 	 
H 	 33.3416 	 -32.361 	 -116.023 	 
H 	 33.9141 	 -30.8484 	 -116.086 	 
C 	 35.4339 	 -32.3744 	 -116.274 	 
H 	 35.5335 	 -33.2653 	 -116.785 	 
H 	 35.6995 	 -32.5984 	 -115.274 	 
C 	 36.5877 	 -31.5419 	 -116.786 	 
H 	 36.5183 	 -30.5487 	 -116.405 	 
H 	 36.7306 	 -31.5458 	 -117.853 	 
H 	 37.5161 	 -31.9653 	 -116.318 	 
H 	 31.6524 	 -26.1889 	 -117.092 	 
H 	 32.6312 	 -33.2338 	 -120.958 	 
