34

S 	 -104.086 	 47.4359 	 -8.72051 	 
C 	 -105.202 	 48.6706 	 -9.25225 	 
C 	 -106.21 	 48.0419 	 -10.0152 	 
C 	 -105.982 	 46.6654 	 -10.2754 	 
C 	 -104.9 	 46.1496 	 -9.6223 	 
H 	 -106.54 	 45.9422 	 -10.8794 	 
C 	 -107.356 	 48.6942 	 -10.6759 	 
H 	 -107.583 	 48.1399 	 -11.5876 	 
H 	 -107.06 	 49.6299 	 -11.148 	 
C 	 -108.625 	 48.8034 	 -9.79686 	 
H 	 -109.552 	 49.0418 	 -10.3293 	 
H 	 -108.985 	 47.8639 	 -9.37533 	 
C 	 -108.492 	 49.8649 	 -8.71194 	 
H 	 -107.829 	 49.6512 	 -7.87756 	 
H 	 -108.164 	 50.7782 	 -9.06804 	 
H 	 -109.519 	 49.9301 	 -8.29063 	 
S 	 -102.515 	 44.8507 	 -9.6476 	 
C 	 -102.478 	 43.1314 	 -9.61562 	 
C 	 -103.793 	 42.6072 	 -9.82563 	 
C 	 -104.808 	 43.6217 	 -9.92257 	 
C 	 -104.241 	 44.884 	 -9.73909 	 
H 	 -103.782 	 41.5207 	 -9.79663 	 
C 	 -106.235 	 43.2056 	 -9.9182 	 
H 	 -106.834 	 44.0084 	 -9.41117 	 
H 	 -106.42 	 42.251 	 -9.37493 	 
C 	 -106.786 	 42.9839 	 -11.3182 	 
H 	 -106.526 	 42.0297 	 -11.7301 	 
H 	 -106.438 	 43.8433 	 -11.9386 	 
C 	 -108.351 	 42.8345 	 -11.452 	 
H 	 -108.478 	 42.5907 	 -12.5719 	 
H 	 -108.9 	 43.7503 	 -11.2512 	 
H 	 -108.77 	 42.0412 	 -10.9453 	 
H 	 -105.262 	 49.7262 	 -8.94162 	 
H 	 -101.549 	 42.5307 	 -9.54897 	 
