34

S 	 -100.027 	 24.7238 	 -112.572 	 
C 	 -100.37 	 23.3801 	 -111.5 	 
C 	 -100.714 	 23.8569 	 -110.245 	 
C 	 -100.92 	 25.2399 	 -110.23 	 
C 	 -100.69 	 25.8837 	 -111.432 	 
H 	 -101.315 	 25.8258 	 -109.384 	 
C 	 -100.968 	 22.9982 	 -109.002 	 
H 	 -100.542 	 23.6222 	 -108.167 	 
H 	 -100.385 	 22.0347 	 -109.015 	 
C 	 -102.44 	 22.7326 	 -108.89 	 
H 	 -102.652 	 22.2354 	 -107.948 	 
H 	 -103.03 	 23.6242 	 -108.81 	 
C 	 -103.113 	 21.8658 	 -110.029 	 
H 	 -102.832 	 22.252 	 -111.02 	 
H 	 -102.692 	 20.9075 	 -109.961 	 
H 	 -104.189 	 21.8426 	 -109.961 	 
S 	 -99.0547 	 28.0721 	 -111.55 	 
C 	 -99.7509 	 29.6396 	 -112.021 	 
C 	 -101.151 	 29.5493 	 -112.105 	 
C 	 -101.664 	 28.2512 	 -111.682 	 
C 	 -100.658 	 27.2965 	 -111.613 	 
H 	 -101.781 	 30.3579 	 -112.447 	 
C 	 -103.15 	 27.9258 	 -111.678 	 
H 	 -103.646 	 28.2096 	 -110.761 	 
H 	 -103.216 	 26.8027 	 -111.71 	 
C 	 -103.843 	 28.4607 	 -112.836 	 
H 	 -103.207 	 28.5684 	 -113.707 	 
H 	 -104.213 	 29.4322 	 -112.517 	 
C 	 -105.196 	 27.895 	 -113.138 	 
H 	 -105.923 	 27.8359 	 -112.292 	 
H 	 -105.181 	 26.8461 	 -113.553 	 
H 	 -105.732 	 28.5292 	 -113.851 	 
H 	 -100.16 	 22.3257 	 -111.742 	 
H 	 -99.1695 	 30.5327 	 -112.197 	 
