34

S 	 -42.5439 	 -1.12438 	 -24.5738 	 
C 	 -43.6725 	 0.197228 	 -24.7821 	 
C 	 -44.8723 	 -0.239724 	 -25.2364 	 
C 	 -44.8583 	 -1.58748 	 -25.705 	 
C 	 -43.6521 	 -2.23219 	 -25.4472 	 
H 	 -45.659 	 -2.10424 	 -26.1931 	 
C 	 -46.11 	 0.642858 	 -25.3768 	 
H 	 -46.3484 	 1.29571 	 -24.4916 	 
H 	 -46.9142 	 -0.0982507 	 -25.4097 	 
C 	 -46.0622 	 1.58997 	 -26.5857 	 
H 	 -46.8696 	 2.3397 	 -26.4154 	 
H 	 -45.116 	 2.10892 	 -26.5847 	 
C 	 -46.2534 	 0.810622 	 -27.913 	 
H 	 -45.3469 	 0.175995 	 -28.1532 	 
H 	 -47.1034 	 0.163097 	 -27.9816 	 
H 	 -46.2764 	 1.5065 	 -28.7003 	 
S 	 -42.0275 	 -4.11988 	 -26.8442 	 
C 	 -42.3405 	 -5.8096 	 -26.5463 	 
C 	 -43.2146 	 -6.03394 	 -25.5153 	 
C 	 -43.8219 	 -4.80316 	 -25.1328 	 
C 	 -43.2734 	 -3.64181 	 -25.6849 	 
H 	 -43.4771 	 -7.03312 	 -25.1688 	 
C 	 -44.8219 	 -4.77656 	 -24.0154 	 
H 	 -44.7297 	 -3.7724 	 -23.6942 	 
H 	 -44.3908 	 -5.37524 	 -23.2086 	 
C 	 -46.245 	 -5.35434 	 -24.4115 	 
H 	 -45.964 	 -6.32326 	 -24.8567 	 
H 	 -46.7511 	 -4.76129 	 -25.1957 	 
C 	 -47.1545 	 -5.39621 	 -23.2219 	 
H 	 -47.0306 	 -4.4521 	 -22.6986 	 
H 	 -46.8762 	 -6.23994 	 -22.5947 	 
H 	 -48.1321 	 -5.59143 	 -23.6316 	 
H 	 -43.5414 	 1.21131 	 -24.5197 	 
H 	 -41.872 	 -6.6636 	 -27.018 	 
