34

S 	 -104.998 	 45.901 	 -89.9235 	 
C 	 -104.889 	 44.3929 	 -90.7882 	 
C 	 -104.911 	 43.3659 	 -89.9087 	 
C 	 -104.823 	 43.7036 	 -88.5741 	 
C 	 -104.694 	 45.0916 	 -88.3755 	 
H 	 -104.756 	 43.0187 	 -87.7117 	 
C 	 -104.927 	 41.9574 	 -90.3544 	 
H 	 -105.788 	 41.9039 	 -91.0934 	 
H 	 -105.135 	 41.3054 	 -89.5576 	 
C 	 -103.676 	 41.4748 	 -91.1153 	 
H 	 -103.995 	 40.4972 	 -91.4458 	 
H 	 -103.364 	 42.2564 	 -91.8629 	 
C 	 -102.507 	 41.1371 	 -90.183 	 
H 	 -102.863 	 40.3806 	 -89.5245 	 
H 	 -101.725 	 40.7865 	 -90.851 	 
H 	 -102.245 	 41.9198 	 -89.4776 	 
S 	 -105.172 	 47.475 	 -87.1901 	 
C 	 -104.502 	 47.8451 	 -85.6528 	 
C 	 -104.19 	 46.7342 	 -84.9727 	 
C 	 -104.002 	 45.6135 	 -85.8139 	 
C 	 -104.426 	 45.877 	 -87.1386 	 
H 	 -104.01 	 46.8749 	 -83.9078 	 
C 	 -103.288 	 44.386 	 -85.4438 	 
H 	 -102.341 	 44.7565 	 -84.9831 	 
H 	 -102.953 	 43.922 	 -86.3444 	 
C 	 -104.015 	 43.4175 	 -84.4935 	 
H 	 -104.871 	 43.1912 	 -85.1037 	 
H 	 -104.243 	 43.7886 	 -83.4884 	 
C 	 -103.246 	 42.0691 	 -84.3883 	 
H 	 -102.443 	 41.9634 	 -83.7157 	 
H 	 -102.992 	 41.676 	 -85.4202 	 
H 	 -103.961 	 41.3767 	 -83.9944 	 
H 	 -105.017 	 44.2118 	 -91.8123 	 
H 	 -104.692 	 48.7386 	 -85.0986 	 
