34

S 	 -46.1267 	 -2.94908 	 -18.8082 	 
C 	 -46.1744 	 -2.88145 	 -17.0355 	 
C 	 -45.0515 	 -3.58884 	 -16.5597 	 
C 	 -44.1991 	 -4.07984 	 -17.5977 	 
C 	 -44.6034 	 -3.81518 	 -18.8886 	 
H 	 -43.3037 	 -4.66771 	 -17.5903 	 
C 	 -44.8494 	 -3.86968 	 -15.1101 	 
H 	 -43.8175 	 -4.15237 	 -15.0772 	 
H 	 -45.4427 	 -4.6859 	 -14.8272 	 
C 	 -45.0145 	 -2.68029 	 -14.1227 	 
H 	 -44.2896 	 -2.53112 	 -13.398 	 
H 	 -44.8449 	 -1.82653 	 -14.7727 	 
C 	 -46.3341 	 -2.62243 	 -13.4759 	 
H 	 -47.1817 	 -2.56942 	 -14.2032 	 
H 	 -46.5092 	 -3.43147 	 -12.7944 	 
H 	 -46.4844 	 -1.67459 	 -12.9647 	 
S 	 -44.9604 	 -5.35228 	 -21.128 	 
C 	 -43.5245 	 -5.60278 	 -22.1242 	 
C 	 -42.4733 	 -4.80363 	 -21.774 	 
C 	 -42.7081 	 -4.14059 	 -20.5512 	 
C 	 -44.0069 	 -4.29143 	 -20.0957 	 
H 	 -41.626 	 -4.86757 	 -22.4222 	 
C 	 -41.5643 	 -3.31505 	 -20.0192 	 
H 	 -40.6946 	 -3.90538 	 -20.3911 	 
H 	 -41.4663 	 -3.55773 	 -18.9656 	 
C 	 -41.411 	 -1.89373 	 -20.4294 	 
H 	 -41.1837 	 -1.78536 	 -21.4963 	 
H 	 -40.5632 	 -1.52159 	 -19.9107 	 
C 	 -42.6557 	 -1.03464 	 -20.0553 	 
H 	 -43.5848 	 -1.53329 	 -20.5158 	 
H 	 -42.5632 	 0.0300144 	 -20.4234 	 
H 	 -42.9139 	 -1.01698 	 -19.0068 	 
H 	 -47.0275 	 -2.60959 	 -16.4675 	 
H 	 -43.5846 	 -6.10754 	 -23.0626 	 
