34

S 	 27.0242 	 -2.64353 	 -108.128 	 
C 	 28.5232 	 -2.28752 	 -108.887 	 
C 	 28.6852 	 -0.893645 	 -108.912 	 
C 	 27.5038 	 -0.153821 	 -108.451 	 
C 	 26.6379 	 -0.99066 	 -107.786 	 
H 	 27.3833 	 0.876202 	 -108.39 	 
C 	 29.7844 	 -0.139795 	 -109.64 	 
H 	 30.7972 	 -0.548793 	 -109.469 	 
H 	 30.0276 	 0.812486 	 -109.106 	 
C 	 29.4991 	 0.169826 	 -111.138 	 
H 	 28.6831 	 0.870478 	 -111.06 	 
H 	 30.3327 	 0.767678 	 -111.557 	 
C 	 29.2282 	 -1.07181 	 -112.063 	 
H 	 29.9208 	 -1.81364 	 -111.738 	 
H 	 28.222 	 -1.47314 	 -111.856 	 
H 	 29.4392 	 -0.934383 	 -113.153 	 
S 	 25.4251 	 0.226666 	 -105.616 	 
C 	 23.806 	 0.666629 	 -105.684 	 
C 	 23.0729 	 0.02285 	 -106.668 	 
C 	 23.97 	 -0.675123 	 -107.531 	 
C 	 25.3309 	 -0.569696 	 -107.18 	 
H 	 22.0484 	 0.187235 	 -106.834 	 
C 	 23.5233 	 -1.45368 	 -108.763 	 
H 	 22.4428 	 -1.41655 	 -108.789 	 
H 	 23.8515 	 -2.46834 	 -108.703 	 
C 	 23.9861 	 -0.855106 	 -110.09 	 
H 	 25.03 	 -0.686607 	 -110.095 	 
H 	 23.5107 	 0.092573 	 -110.276 	 
C 	 23.6796 	 -1.73269 	 -111.294 	 
H 	 24.5321 	 -2.39946 	 -111.301 	 
H 	 23.7295 	 -1.27308 	 -112.296 	 
H 	 22.8254 	 -2.38065 	 -111.131 	 
H 	 29.2981 	 -2.98345 	 -109.284 	 
H 	 23.2717 	 1.27221 	 -104.975 	 
