34

S 	 19.5385 	 -15.6131 	 -126.914 	 
C 	 18.5739 	 -14.953 	 -125.604 	 
C 	 19.2912 	 -14.7278 	 -124.418 	 
C 	 20.6909 	 -15.0818 	 -124.669 	 
C 	 21.0261 	 -15.3925 	 -125.98 	 
H 	 21.4649 	 -15.1454 	 -123.948 	 
C 	 18.8649 	 -14.2932 	 -123.065 	 
H 	 18.4388 	 -13.297 	 -123.094 	 
H 	 19.7794 	 -14.2225 	 -122.503 	 
C 	 17.8803 	 -15.2933 	 -122.34 	 
H 	 16.9565 	 -15.493 	 -122.881 	 
H 	 18.2801 	 -16.2348 	 -122.138 	 
C 	 17.3865 	 -14.7679 	 -120.989 	 
H 	 18.1787 	 -14.6455 	 -120.263 	 
H 	 16.9084 	 -13.7915 	 -120.994 	 
H 	 16.7713 	 -15.5424 	 -120.578 	 
S 	 22.3437 	 -17.2171 	 -127.606 	 
C 	 24.041 	 -17.0123 	 -127.833 	 
C 	 24.5681 	 -15.9681 	 -127.056 	 
C 	 23.5655 	 -15.1923 	 -126.385 	 
C 	 22.3034 	 -15.7604 	 -126.542 	 
H 	 25.6339 	 -15.6851 	 -127.175 	 
C 	 24.0217 	 -13.9923 	 -125.485 	 
H 	 24.4764 	 -14.4566 	 -124.615 	 
H 	 23.1281 	 -13.4566 	 -125.198 	 
C 	 24.9798 	 -13.0001 	 -126.121 	 
H 	 25.628 	 -13.4465 	 -126.901 	 
H 	 25.6598 	 -12.6641 	 -125.41 	 
C 	 24.2546 	 -11.7026 	 -126.589 	 
H 	 24.9053 	 -11.1027 	 -127.272 	 
H 	 23.8943 	 -11.2734 	 -125.624 	 
H 	 23.3607 	 -12.0146 	 -127.199 	 
H 	 17.5698 	 -14.8284 	 -125.784 	 
H 	 24.7038 	 -17.5972 	 -128.395 	 
