34

S 	 -86.9537 	 -30.72 	 -71.2304 	 
C 	 -87.0339 	 -32.2473 	 -72.1223 	 
C 	 -88.2943 	 -32.7726 	 -72.1668 	 
C 	 -89.264 	 -31.9908 	 -71.4268 	 
C 	 -88.6514 	 -30.8183 	 -70.9397 	 
H 	 -90.3038 	 -32.2418 	 -71.2388 	 
C 	 -88.6222 	 -34.0752 	 -72.7102 	 
H 	 -89.0113 	 -34.7325 	 -71.8687 	 
H 	 -87.7316 	 -34.6319 	 -73.0991 	 
C 	 -89.5808 	 -33.957 	 -73.8637 	 
H 	 -90.5551 	 -33.5577 	 -73.5004 	 
H 	 -89.1605 	 -33.191 	 -74.5923 	 
C 	 -89.7587 	 -35.301 	 -74.6307 	 
H 	 -89.5154 	 -36.1049 	 -74.0191 	 
H 	 -90.8183 	 -35.3236 	 -74.9647 	 
H 	 -89.1069 	 -35.519 	 -75.4698 	 
S 	 -88.1541 	 -28.7987 	 -69.0441 	 
C 	 -89.462 	 -27.9426 	 -68.314 	 
C 	 -90.6007 	 -28.1715 	 -69.0257 	 
C 	 -90.5077 	 -29.1767 	 -70.0261 	 
C 	 -89.2234 	 -29.6711 	 -70.1982 	 
H 	 -91.5191 	 -27.6016 	 -68.8777 	 
C 	 -91.7554 	 -29.5693 	 -70.7345 	 
H 	 -92.2838 	 -29.8976 	 -69.9462 	 
H 	 -91.6025 	 -30.345 	 -71.4356 	 
C 	 -92.5548 	 -28.4608 	 -71.4288 	 
H 	 -92.9451 	 -27.6914 	 -70.7491 	 
H 	 -93.3718 	 -28.8488 	 -71.8847 	 
C 	 -91.5623 	 -27.7394 	 -72.4973 	 
H 	 -92.0502 	 -26.8882 	 -73.0866 	 
H 	 -91.3275 	 -28.4144 	 -73.2289 	 
H 	 -90.6443 	 -27.3567 	 -71.9859 	 
H 	 -86.2201 	 -32.8187 	 -72.6062 	 
H 	 -89.2248 	 -27.1626 	 -67.6149 	 
