34

S 	 -42.7783 	 7.98276 	 29.855 	 
C 	 -42.1114 	 9.47412 	 29.2817 	 
C 	 -43.0887 	 10.379 	 29.0141 	 
C 	 -44.3713 	 9.78834 	 29.1419 	 
C 	 -44.4777 	 8.4955 	 29.6361 	 
H 	 -45.3145 	 10.2483 	 28.8587 	 
C 	 -42.7764 	 11.8075 	 28.4926 	 
H 	 -41.6762 	 11.9367 	 28.6472 	 
H 	 -43.27 	 12.4924 	 29.13 	 
C 	 -43.0693 	 12.1038 	 27.0375 	 
H 	 -44.1109 	 12.1638 	 26.8276 	 
H 	 -42.8082 	 13.1862 	 26.8858 	 
C 	 -42.3613 	 11.1714 	 25.9657 	 
H 	 -42.6085 	 10.153 	 26.2439 	 
H 	 -42.8069 	 11.3872 	 25.0165 	 
H 	 -41.2677 	 11.235 	 25.8356 	 
S 	 -45.3252 	 5.83441 	 29.7617 	 
C 	 -46.9913 	 5.56328 	 30.3049 	 
C 	 -47.6625 	 6.74058 	 30.483 	 
C 	 -46.9004 	 7.91167 	 30.2043 	 
C 	 -45.6021 	 7.58663 	 29.8328 	 
H 	 -48.6687 	 6.77029 	 30.8862 	 
C 	 -47.4516 	 9.31157 	 30.5705 	 
H 	 -46.667 	 9.97533 	 30.3599 	 
H 	 -47.5931 	 9.46425 	 31.6085 	 
C 	 -48.7013 	 9.82411 	 29.8175 	 
H 	 -48.8712 	 10.8443 	 30.2443 	 
H 	 -49.5629 	 9.1917 	 30.0653 	 
C 	 -48.5933 	 9.99109 	 28.3372 	 
H 	 -49.5369 	 10.1504 	 27.7915 	 
H 	 -48.1818 	 9.03466 	 27.947 	 
H 	 -47.9277 	 10.7904 	 28.0435 	 
H 	 -41.0191 	 9.58685 	 29.114 	 
H 	 -47.5532 	 4.61247 	 30.4554 	 
