34

S 	 -45.2223 	 -8.43923 	 -20.4613 	 
C 	 -45.8047 	 -10.0967 	 -20.5301 	 
C 	 -45.4406 	 -10.7006 	 -19.32 	 
C 	 -44.6328 	 -9.85652 	 -18.4523 	 
C 	 -44.5626 	 -8.53493 	 -18.8841 	 
H 	 -44.1302 	 -10.128 	 -17.5533 	 
C 	 -45.7449 	 -12.1238 	 -18.9533 	 
H 	 -46.4187 	 -12.6168 	 -19.6678 	 
H 	 -46.4005 	 -12.1284 	 -18.0699 	 
C 	 -44.5275 	 -13.0899 	 -18.8404 	 
H 	 -44.1938 	 -13.2738 	 -19.8456 	 
H 	 -43.7149 	 -12.6729 	 -18.2495 	 
C 	 -44.8309 	 -14.5224 	 -18.218 	 
H 	 -45.1665 	 -15.2695 	 -18.8947 	 
H 	 -43.9501 	 -14.9522 	 -17.7713 	 
H 	 -45.6175 	 -14.5142 	 -17.4952 	 
S 	 -42.4758 	 -6.66335 	 -19.3152 	 
C 	 -41.6156 	 -6.01347 	 -17.9397 	 
C 	 -42.2367 	 -6.45088 	 -16.7872 	 
C 	 -43.3364 	 -7.34844 	 -16.985 	 
C 	 -43.6571 	 -7.47723 	 -18.299 	 
H 	 -41.8292 	 -6.06317 	 -15.8886 	 
C 	 -44.111 	 -7.78726 	 -15.8181 	 
H 	 -43.5801 	 -8.6894 	 -15.4143 	 
H 	 -45.1422 	 -7.9657 	 -16.2094 	 
C 	 -44.4005 	 -6.83286 	 -14.6493 	 
H 	 -44.8889 	 -5.94394 	 -15.0637 	 
H 	 -43.5193 	 -6.49867 	 -14.2131 	 
C 	 -45.2484 	 -7.36986 	 -13.4419 	 
H 	 -44.8221 	 -8.31197 	 -12.943 	 
H 	 -46.2707 	 -7.53076 	 -13.8643 	 
H 	 -45.2822 	 -6.54923 	 -12.6935 	 
H 	 -46.4205 	 -10.4861 	 -21.3768 	 
H 	 -40.8574 	 -5.30264 	 -17.9919 	 
