34

S 	 -103.106 	 -5.29858 	 -110.99 	 
C 	 -103.911 	 -6.80016 	 -110.529 	 
C 	 -104.015 	 -6.89903 	 -109.159 	 
C 	 -103.135 	 -6.01202 	 -108.48 	 
C 	 -102.511 	 -5.0571 	 -109.343 	 
H 	 -103.109 	 -5.84046 	 -107.398 	 
C 	 -104.922 	 -7.86829 	 -108.413 	 
H 	 -105.858 	 -8.01942 	 -109.042 	 
H 	 -105.302 	 -7.25516 	 -107.591 	 
C 	 -104.336 	 -9.1838 	 -108.02 	 
H 	 -103.429 	 -9.06957 	 -107.416 	 
H 	 -105.007 	 -9.7642 	 -107.394 	 
C 	 -104.07 	 -10.0529 	 -109.228 	 
H 	 -104.869 	 -10.7747 	 -109.536 	 
H 	 -103.886 	 -9.46527 	 -110.124 	 
H 	 -103.199 	 -10.5704 	 -108.959 	 
S 	 -101.05 	 -2.78755 	 -110.299 	 
C 	 -100.107 	 -1.97043 	 -109.007 	 
C 	 -99.9136 	 -2.70617 	 -107.91 	 
C 	 -100.739 	 -3.90494 	 -107.912 	 
C 	 -101.625 	 -3.95872 	 -109.006 	 
H 	 -99.2673 	 -2.49196 	 -107.065 	 
C 	 -100.689 	 -4.78673 	 -106.674 	 
H 	 -99.6509 	 -4.77766 	 -106.266 	 
H 	 -100.898 	 -5.8581 	 -107.03 	 
C 	 -101.668 	 -4.51985 	 -105.541 	 
H 	 -102.635 	 -4.27224 	 -105.852 	 
H 	 -101.388 	 -3.63776 	 -105.029 	 
C 	 -101.723 	 -5.58927 	 -104.538 	 
H 	 -102.249 	 -5.32618 	 -103.66 	 
H 	 -100.638 	 -5.75559 	 -104.31 	 
H 	 -102.13 	 -6.5097 	 -104.93 	 
H 	 -104.472 	 -7.42596 	 -111.22 	 
H 	 -99.6188 	 -1.05091 	 -109.086 	 
