34

S 	 -138.377 	 68.09 	 -63.9348 	 
C 	 -138.528 	 68.9711 	 -65.4408 	 
C 	 -137.992 	 70.3027 	 -65.3022 	 
C 	 -137.459 	 70.4985 	 -64.0154 	 
C 	 -137.506 	 69.3987 	 -63.1716 	 
H 	 -136.979 	 71.3561 	 -63.6548 	 
C 	 -138.148 	 71.4049 	 -66.3121 	 
H 	 -138.532 	 70.9153 	 -67.2184 	 
H 	 -137.11 	 71.8016 	 -66.3834 	 
C 	 -139.172 	 72.6011 	 -65.9472 	 
H 	 -138.857 	 73.2387 	 -65.1217 	 
H 	 -139.213 	 73.2157 	 -66.8604 	 
C 	 -140.453 	 72.0401 	 -65.5279 	 
H 	 -140.367 	 71.3275 	 -64.6226 	 
H 	 -141.084 	 72.8648 	 -65.2436 	 
H 	 -140.912 	 71.417 	 -66.3381 	 
S 	 -138.525 	 68.4441 	 -60.8436 	 
C 	 -137.696 	 68.9005 	 -59.3518 	 
C 	 -136.587 	 69.6624 	 -59.5614 	 
C 	 -136.25 	 69.8257 	 -60.9582 	 
C 	 -137.255 	 69.3682 	 -61.7577 	 
H 	 -135.997 	 69.9019 	 -58.6849 	 
C 	 -134.955 	 70.481 	 -61.427 	 
H 	 -135.04 	 71.5495 	 -61.2851 	 
H 	 -134.811 	 70.2528 	 -62.47 	 
C 	 -133.691 	 69.9835 	 -60.6943 	 
H 	 -132.883 	 69.4833 	 -61.2412 	 
H 	 -133.932 	 69.1612 	 -60.0813 	 
C 	 -133.129 	 71.0809 	 -59.8008 	 
H 	 -133.925 	 71.5255 	 -59.254 	 
H 	 -132.787 	 71.9136 	 -60.5542 	 
H 	 -132.308 	 70.9045 	 -59.1485 	 
H 	 -139.159 	 68.6381 	 -66.2824 	 
H 	 -138.017 	 68.6998 	 -58.3128 	 
