34

S 	 -78.2614 	 -0.0693392 	 -67.396 	 
C 	 -77.5717 	 1.43135 	 -66.9813 	 
C 	 -77.1877 	 1.53481 	 -65.6374 	 
C 	 -77.5091 	 0.303581 	 -64.9902 	 
C 	 -78.0161 	 -0.696681 	 -65.8178 	 
H 	 -77.4305 	 0.0422449 	 -63.9283 	 
C 	 -76.6335 	 2.76185 	 -64.928 	 
H 	 -76.4073 	 2.35907 	 -63.9317 	 
H 	 -77.3838 	 3.55917 	 -64.8296 	 
C 	 -75.3748 	 3.25775 	 -65.613 	 
H 	 -74.4755 	 2.60957 	 -65.5936 	 
H 	 -75.4947 	 3.4214 	 -66.6534 	 
C 	 -74.9134 	 4.54933 	 -64.9646 	 
H 	 -75.4809 	 5.43193 	 -65.1693 	 
H 	 -74.6688 	 4.50641 	 -63.9051 	 
H 	 -74.033 	 4.81362 	 -65.5167 	 
S 	 -77.7144 	 -3.22449 	 -64.7435 	 
C 	 -79.1844 	 -4.0679 	 -64.3811 	 
C 	 -80.3094 	 -3.4397 	 -64.7995 	 
C 	 -80.0373 	 -2.19299 	 -65.3039 	 
C 	 -78.6704 	 -1.85622 	 -65.2896 	 
H 	 -81.2282 	 -3.81693 	 -64.6313 	 
C 	 -81.1204 	 -1.25589 	 -65.7597 	 
H 	 -80.701 	 -0.32183 	 -66.1469 	 
H 	 -81.7326 	 -0.986249 	 -64.8907 	 
C 	 -81.9554 	 -1.88585 	 -66.877 	 
H 	 -82.5584 	 -1.07442 	 -67.2891 	 
H 	 -82.5953 	 -2.7137 	 -66.5737 	 
C 	 -81.13 	 -2.38381 	 -68.081 	 
H 	 -80.2666 	 -2.99703 	 -67.737 	 
H 	 -80.7202 	 -1.55583 	 -68.6741 	 
H 	 -81.727 	 -2.91469 	 -68.7896 	 
H 	 -77.57 	 2.31353 	 -67.5735 	 
H 	 -79.1814 	 -5.11737 	 -64.0241 	 
