34

S 	 -87.0177 	 -4.35467 	 -62.7918 	 
C 	 -87.7351 	 -4.04298 	 -64.3962 	 
C 	 -86.9102 	 -3.42446 	 -65.2545 	 
C 	 -85.6048 	 -3.27743 	 -64.6477 	 
C 	 -85.4597 	 -3.81294 	 -63.4089 	 
H 	 -84.7633 	 -2.67522 	 -64.9325 	 
C 	 -87.4012 	 -2.85721 	 -66.5892 	 
H 	 -86.692 	 -1.96334 	 -66.6958 	 
H 	 -88.4274 	 -2.49775 	 -66.5307 	 
C 	 -87.1556 	 -3.78831 	 -67.8313 	 
H 	 -87.4743 	 -3.19431 	 -68.6197 	 
H 	 -86.0275 	 -3.97697 	 -67.9174 	 
C 	 -87.8535 	 -5.22511 	 -67.8556 	 
H 	 -87.3267 	 -5.84058 	 -68.624 	 
H 	 -87.7533 	 -5.59006 	 -66.8007 	 
H 	 -88.842 	 -5.08944 	 -68.0836 	 
S 	 -84.1257 	 -2.80586 	 -61.1073 	 
C 	 -82.3853 	 -2.98266 	 -61.1053 	 
C 	 -81.947 	 -3.89786 	 -62.0996 	 
C 	 -82.9698 	 -4.30426 	 -62.9873 	 
C 	 -84.2274 	 -3.7641 	 -62.614 	 
H 	 -80.8643 	 -4.10592 	 -62.1771 	 
C 	 -82.7341 	 -5.14597 	 -64.228 	 
H 	 -83.6237 	 -5.18468 	 -64.7979 	 
H 	 -82.6312 	 -6.18878 	 -63.8859 	 
C 	 -81.5839 	 -4.77967 	 -65.0458 	 
H 	 -80.7783 	 -5.44278 	 -64.9528 	 
H 	 -81.238 	 -3.77387 	 -64.8903 	 
C 	 -81.8992 	 -4.87609 	 -66.5423 	 
H 	 -81.0049 	 -4.48533 	 -67.1208 	 
H 	 -82.6803 	 -4.26178 	 -66.8199 	 
H 	 -82.1314 	 -5.84741 	 -66.8693 	 
H 	 -88.7762 	 -4.18848 	 -64.7011 	 
H 	 -81.8359 	 -2.51741 	 -60.2626 	 
