34

S 	 -135.178 	 31.1995 	 -19.3625 	 
C 	 -135.085 	 29.7509 	 -20.3028 	 
C 	 -135.495 	 28.6119 	 -19.5841 	 
C 	 -135.759 	 28.9531 	 -18.2096 	 
C 	 -135.558 	 30.2906 	 -17.8954 	 
H 	 -135.986 	 28.2554 	 -17.429 	 
C 	 -135.615 	 27.1595 	 -20.1053 	 
H 	 -136.342 	 27.12 	 -20.9158 	 
H 	 -136.067 	 26.6366 	 -19.3226 	 
C 	 -134.294 	 26.5139 	 -20.5469 	 
H 	 -133.814 	 27.0671 	 -21.419 	 
H 	 -133.573 	 26.6328 	 -19.7658 	 
C 	 -134.494 	 25.0075 	 -20.8204 	 
H 	 -134.622 	 24.5469 	 -19.8272 	 
H 	 -135.374 	 24.9242 	 -21.4695 	 
H 	 -133.583 	 24.5747 	 -21.3165 	 
S 	 -137.447 	 31.0399 	 -16.0662 	 
C 	 -136.933 	 31.755 	 -14.554 	 
C 	 -135.524 	 32.0177 	 -14.5898 	 
C 	 -134.873 	 31.5692 	 -15.7386 	 
C 	 -135.744 	 30.8958 	 -16.5796 	 
H 	 -135.062 	 32.502 	 -13.7054 	 
C 	 -133.446 	 31.9268 	 -16.0048 	 
H 	 -133.152 	 32.7359 	 -15.4211 	 
H 	 -133.411 	 32.3137 	 -17.0553 	 
C 	 -132.382 	 30.8443 	 -16.2258 	 
H 	 -132.826 	 30.1851 	 -17.0091 	 
H 	 -132.295 	 30.1893 	 -15.3405 	 
C 	 -131.026 	 31.2893 	 -16.686 	 
H 	 -130.546 	 31.9412 	 -16.0018 	 
H 	 -131.127 	 31.8722 	 -17.5041 	 
H 	 -130.448 	 30.3716 	 -16.9925 	 
H 	 -134.744 	 29.6192 	 -21.3419 	 
H 	 -137.598 	 32.0895 	 -13.7709 	 
