34

S 	 43.1389 	 -18.3579 	 -114.042 	 
C 	 42.8104 	 -16.7282 	 -113.494 	 
C 	 43.45 	 -16.4457 	 -112.323 	 
C 	 44.2002 	 -17.5787 	 -111.762 	 
C 	 44.0034 	 -18.7656 	 -112.489 	 
H 	 44.8614 	 -17.5134 	 -110.921 	 
C 	 43.6897 	 -14.9871 	 -111.837 	 
H 	 43.0924 	 -14.3325 	 -112.371 	 
H 	 44.7178 	 -14.8053 	 -112.183 	 
C 	 43.6873 	 -14.6798 	 -110.358 	 
H 	 44.497 	 -15.2139 	 -109.844 	 
H 	 43.8251 	 -13.6018 	 -110.261 	 
C 	 42.5113 	 -15.2766 	 -109.571 	 
H 	 42.6898 	 -15.1405 	 -108.469 	 
H 	 41.5103 	 -14.8797 	 -109.747 	 
H 	 42.3673 	 -16.3388 	 -109.601 	 
S 	 44.7243 	 -21.0834 	 -113.755 	 
C 	 45.5158 	 -22.3609 	 -112.899 	 
C 	 45.4883 	 -22.1452 	 -111.575 	 
C 	 44.9799 	 -20.8775 	 -111.27 	 
C 	 44.63 	 -20.0736 	 -112.374 	 
H 	 45.7934 	 -22.8999 	 -110.853 	 
C 	 44.9507 	 -20.4889 	 -109.77 	 
H 	 43.9987 	 -19.8776 	 -109.691 	 
H 	 45.8136 	 -19.8177 	 -109.622 	 
C 	 45.1114 	 -21.5571 	 -108.647 	 
H 	 46.0628 	 -22.0558 	 -108.684 	 
H 	 44.4303 	 -22.3894 	 -108.836 	 
C 	 45.0169 	 -20.9526 	 -107.255 	 
H 	 46.0003 	 -20.733 	 -106.917 	 
H 	 44.6789 	 -21.8017 	 -106.665 	 
H 	 44.3545 	 -20.1166 	 -107.108 	 
H 	 42.3641 	 -15.9765 	 -114.147 	 
H 	 45.7945 	 -23.2628 	 -113.408 	 
