34

S 	 -109.791 	 52.6071 	 -89.6161 	 
C 	 -109.349 	 51.0813 	 -88.8502 	 
C 	 -109.937 	 50.9862 	 -87.6221 	 
C 	 -110.801 	 52.0719 	 -87.3684 	 
C 	 -110.744 	 53.1077 	 -88.321 	 
H 	 -111.461 	 52.1766 	 -86.5165 	 
C 	 -109.907 	 49.7657 	 -86.7056 	 
H 	 -109.439 	 48.837 	 -87.1079 	 
H 	 -110.908 	 49.4108 	 -86.6342 	 
C 	 -109.584 	 49.9287 	 -85.143 	 
H 	 -110.4 	 50.5327 	 -84.6658 	 
H 	 -109.632 	 48.9046 	 -84.7131 	 
C 	 -108.164 	 50.4022 	 -84.836 	 
H 	 -108.077 	 50.6159 	 -83.7783 	 
H 	 -107.384 	 49.6626 	 -84.9675 	 
H 	 -107.82 	 51.2948 	 -85.4986 	 
S 	 -110.394 	 55.8766 	 -88.0603 	 
C 	 -111.788 	 56.8582 	 -87.705 	 
C 	 -112.94 	 56.1105 	 -87.8749 	 
C 	 -112.727 	 54.7457 	 -88.1217 	 
C 	 -111.393 	 54.4068 	 -88.16 	 
H 	 -113.983 	 56.4351 	 -87.814 	 
C 	 -113.896 	 53.7536 	 -88.0102 	 
H 	 -113.757 	 52.786 	 -88.5263 	 
H 	 -114.78 	 54.0908 	 -88.6299 	 
C 	 -114.434 	 53.5578 	 -86.5971 	 
H 	 -115.1 	 54.3785 	 -86.3104 	 
H 	 -113.587 	 53.6699 	 -85.8855 	 
C 	 -115.049 	 52.1547 	 -86.5152 	 
H 	 -114.306 	 51.3975 	 -86.6744 	 
H 	 -115.899 	 51.8949 	 -87.2064 	 
H 	 -115.366 	 51.9804 	 -85.4929 	 
H 	 -108.558 	 50.4015 	 -89.2687 	 
H 	 -111.78 	 57.9172 	 -87.4542 	 
