34

S 	 -82.5773 	 -0.312512 	 -112.699 	 
C 	 -81.9755 	 1.34913 	 -113 	 
C 	 -82.8304 	 2.07878 	 -113.823 	 
C 	 -84.0417 	 1.30814 	 -114.092 	 
C 	 -84.1038 	 0.0275191 	 -113.603 	 
H 	 -84.9608 	 1.65202 	 -114.702 	 
C 	 -82.6914 	 3.51426 	 -114.271 	 
H 	 -82.8808 	 3.62914 	 -115.342 	 
H 	 -81.6272 	 3.65242 	 -114.19 	 
C 	 -83.4362 	 4.55122 	 -113.429 	 
H 	 -83.3446 	 5.57701 	 -113.855 	 
H 	 -84.4587 	 4.28026 	 -113.654 	 
C 	 -83.194 	 4.68946 	 -111.912 	 
H 	 -83.8149 	 5.36654 	 -111.341 	 
H 	 -83.4153 	 3.7869 	 -111.447 	 
H 	 -82.1101 	 4.83124 	 -111.717 	 
S 	 -86.2342 	 -1.20469 	 -112.393 	 
C 	 -87.2109 	 -2.30884 	 -113.317 	 
C 	 -86.6982 	 -2.52784 	 -114.578 	 
C 	 -85.5703 	 -1.74057 	 -114.778 	 
C 	 -85.1897 	 -0.950912 	 -113.749 	 
H 	 -87.1846 	 -3.22663 	 -115.279 	 
C 	 -84.6524 	 -1.88852 	 -115.978 	 
H 	 -84.7906 	 -2.90712 	 -116.386 	 
H 	 -83.6144 	 -1.87918 	 -115.695 	 
C 	 -84.9024 	 -0.775571 	 -117.066 	 
H 	 -84.5222 	 0.213734 	 -116.778 	 
H 	 -85.9649 	 -0.590494 	 -117.124 	 
C 	 -84.4279 	 -1.07924 	 -118.482 	 
H 	 -84.8979 	 -0.317586 	 -119.043 	 
H 	 -84.868 	 -2.08925 	 -118.813 	 
H 	 -83.3247 	 -1.09611 	 -118.498 	 
H 	 -80.9799 	 1.7431 	 -112.741 	 
H 	 -88.0736 	 -2.83532 	 -112.989 	 
