34

S 	 -28.4873 	 -36.3358 	 -93.8566 	 
C 	 -27.9983 	 -34.7717 	 -94.5493 	 
C 	 -29.0878 	 -33.9912 	 -94.8368 	 
C 	 -30.3154 	 -34.4865 	 -94.423 	 
C 	 -30.1476 	 -35.7807 	 -93.9753 	 
H 	 -31.3486 	 -33.9817 	 -94.54 	 
C 	 -28.9474 	 -32.6568 	 -95.547 	 
H 	 -29.9206 	 -32.6677 	 -95.9867 	 
H 	 -28.0951 	 -32.8447 	 -96.2273 	 
C 	 -28.6026 	 -31.3664 	 -94.7441 	 
H 	 -28.3043 	 -30.5264 	 -95.4566 	 
H 	 -29.5931 	 -31.1172 	 -94.2425 	 
C 	 -27.4229 	 -31.4911 	 -93.8834 	 
H 	 -26.4865 	 -31.9355 	 -94.3617 	 
H 	 -26.9949 	 -30.5576 	 -93.498 	 
H 	 -27.6771 	 -32.0682 	 -92.9197 	 
S 	 -31.3136 	 -37.1233 	 -91.9389 	 
C 	 -32.5516 	 -38.3667 	 -92.2815 	 
C 	 -33.0784 	 -38.1044 	 -93.5039 	 
C 	 -32.3167 	 -37.125 	 -94.2885 	 
C 	 -31.2422 	 -36.6421 	 -93.6021 	 
H 	 -33.9066 	 -38.7056 	 -93.9175 	 
C 	 -32.4917 	 -37.0136 	 -95.8741 	 
H 	 -32.9248 	 -36.0634 	 -96.1602 	 
H 	 -33.2356 	 -37.7746 	 -96.1277 	 
C 	 -31.2539 	 -37.145 	 -96.9078 	 
H 	 -30.6113 	 -36.2726 	 -96.8489 	 
H 	 -31.5254 	 -37.0161 	 -97.9587 	 
C 	 -30.4803 	 -38.4558 	 -96.7817 	 
H 	 -29.9441 	 -38.401 	 -95.7843 	 
H 	 -29.6983 	 -38.3996 	 -97.558 	 
H 	 -30.9201 	 -39.4244 	 -96.9232 	 
H 	 -26.9805 	 -34.4886 	 -94.6788 	 
H 	 -32.8849 	 -39.0994 	 -91.531 	 
