34

S 	 -118.707 	 20.9098 	 -109.881 	 
C 	 -119.52 	 21.8688 	 -111.136 	 
C 	 -120.299 	 21.0402 	 -111.894 	 
C 	 -120.23 	 19.677 	 -111.501 	 
C 	 -119.466 	 19.4053 	 -110.364 	 
H 	 -120.747 	 18.8722 	 -112.03 	 
C 	 -121.108 	 21.4707 	 -113.074 	 
H 	 -121.07 	 22.5551 	 -113.091 	 
H 	 -122.176 	 21.223 	 -112.99 	 
C 	 -120.569 	 20.999 	 -114.435 	 
H 	 -119.635 	 21.4947 	 -114.664 	 
H 	 -120.385 	 19.9546 	 -114.505 	 
C 	 -121.576 	 21.3475 	 -115.517 	 
H 	 -121.216 	 20.9408 	 -116.452 	 
H 	 -122.549 	 20.8914 	 -115.318 	 
H 	 -121.697 	 22.4215 	 -115.542 	 
S 	 -117.969 	 17.0549 	 -109.826 	 
C 	 -118.574 	 15.9779 	 -108.627 	 
C 	 -119.836 	 16.3692 	 -108.248 	 
C 	 -120.31 	 17.5872 	 -108.865 	 
C 	 -119.367 	 18.1605 	 -109.656 	 
H 	 -120.296 	 15.8346 	 -107.456 	 
C 	 -121.622 	 18.19 	 -108.495 	 
H 	 -121.543 	 19.2892 	 -108.627 	 
H 	 -121.756 	 17.9655 	 -107.447 	 
C 	 -122.814 	 17.6387 	 -109.386 	 
H 	 -122.965 	 16.6568 	 -108.954 	 
H 	 -122.736 	 17.5241 	 -110.478 	 
C 	 -124.05 	 18.3875 	 -108.998 	 
H 	 -124.246 	 18.3381 	 -107.963 	 
H 	 -124.904 	 17.7902 	 -109.462 	 
H 	 -124.095 	 19.4435 	 -109.366 	 
H 	 -119.249 	 22.8809 	 -111.393 	 
H 	 -118.184 	 14.9978 	 -108.498 	 
