34

S 	 3.11409 	 -18.6413 	 -112.622 	 
C 	 2.42942 	 -17.8466 	 -114.045 	 
C 	 1.29079 	 -18.5447 	 -114.445 	 
C 	 1.10833 	 -19.8557 	 -113.76 	 
C 	 2.13041 	 -20.0495 	 -112.856 	 
H 	 0.381199 	 -20.673 	 -113.765 	 
C 	 0.341342 	 -17.9623 	 -115.391 	 
H 	 0.942008 	 -17.3189 	 -116.056 	 
H 	 -0.348088 	 -17.3507 	 -114.819 	 
C 	 -0.663909 	 -18.9469 	 -116.092 	 
H 	 -1.18834 	 -19.5062 	 -115.329 	 
H 	 -1.47169 	 -18.3537 	 -116.482 	 
C 	 -0.121702 	 -19.7148 	 -117.238 	 
H 	 0.663165 	 -20.3088 	 -116.735 	 
H 	 -0.851466 	 -20.4255 	 -117.65 	 
H 	 0.249749 	 -19.1161 	 -117.985 	 
S 	 2.64871 	 -20.7823 	 -110.26 	 
C 	 2.63316 	 -22.4946 	 -109.816 	 
C 	 2.16143 	 -23.2877 	 -110.883 	 
C 	 1.91499 	 -22.5028 	 -112.073 	 
C 	 2.19367 	 -21.1713 	 -111.964 	 
H 	 2.08342 	 -24.3397 	 -110.72 	 
C 	 1.47206 	 -23.2492 	 -113.397 	 
H 	 1.49734 	 -22.5911 	 -114.237 	 
H 	 0.39352 	 -23.3719 	 -113.281 	 
C 	 2.26468 	 -24.5933 	 -113.582 	 
H 	 1.9977 	 -25.2513 	 -114.332 	 
H 	 2.09467 	 -25.2624 	 -112.735 	 
C 	 3.7169 	 -24.3852 	 -113.844 	 
H 	 3.88584 	 -23.789 	 -114.693 	 
H 	 4.32058 	 -25.2845 	 -113.938 	 
H 	 4.10514 	 -23.8167 	 -112.988 	 
H 	 2.64955 	 -16.8779 	 -114.41 	 
H 	 2.68364 	 -22.8624 	 -108.786 	 
