34

S 	 -111.898 	 61.3124 	 -71.0068 	 
C 	 -110.672 	 62.5147 	 -70.645 	 
C 	 -111.138 	 63.7893 	 -70.9091 	 
C 	 -112.551 	 63.768 	 -71.1434 	 
C 	 -113.105 	 62.5323 	 -71.2529 	 
H 	 -113.148 	 64.6615 	 -71.2753 	 
C 	 -110.322 	 65.0714 	 -70.6135 	 
H 	 -110.035 	 65.0042 	 -69.6263 	 
H 	 -111.084 	 65.8433 	 -70.5564 	 
C 	 -109.084 	 65.4039 	 -71.5764 	 
H 	 -108.388 	 66.144 	 -71.1151 	 
H 	 -108.428 	 64.5194 	 -71.7594 	 
C 	 -109.632 	 65.9754 	 -72.8917 	 
H 	 -110.224 	 65.1467 	 -73.4138 	 
H 	 -110.341 	 66.7356 	 -72.8118 	 
H 	 -108.827 	 66.2257 	 -73.5845 	 
S 	 -115.187 	 60.845 	 -70.508 	 
C 	 -116.778 	 61.0882 	 -70.9818 	 
C 	 -116.83 	 62.1879 	 -71.8492 	 
C 	 -115.51 	 62.7799 	 -72.1521 	 
C 	 -114.492 	 62.1896 	 -71.4067 	 
H 	 -117.782 	 62.4461 	 -72.2639 	 
C 	 -115.425 	 64.0016 	 -73.0712 	 
H 	 -114.801 	 64.7692 	 -72.6301 	 
H 	 -116.455 	 64.478 	 -73.1005 	 
C 	 -114.919 	 63.8098 	 -74.4674 	 
H 	 -113.917 	 63.5107 	 -74.534 	 
H 	 -115.06 	 64.7908 	 -74.8539 	 
C 	 -115.809 	 62.8442 	 -75.3534 	 
H 	 -115.523 	 62.978 	 -76.34 	 
H 	 -116.863 	 63.057 	 -75.2115 	 
H 	 -115.565 	 61.82 	 -75.0197 	 
H 	 -109.576 	 62.2948 	 -70.4986 	 
H 	 -117.582 	 60.4012 	 -70.7857 	 
