34

S 	 -138.773 	 2.63589 	 5.05721 	 
C 	 -138.02 	 1.15931 	 4.47377 	 
C 	 -136.672 	 1.25005 	 4.65315 	 
C 	 -136.279 	 2.42811 	 5.36086 	 
C 	 -137.257 	 3.34632 	 5.584 	 
H 	 -135.283 	 2.73914 	 5.5741 	 
C 	 -135.559 	 0.2764 	 4.14203 	 
H 	 -135.509 	 -0.556266 	 4.80788 	 
H 	 -134.712 	 0.933306 	 4.34631 	 
C 	 -135.62 	 -0.223788 	 2.68626 	 
H 	 -136.629 	 -0.573132 	 2.43129 	 
H 	 -135.463 	 0.618556 	 1.97138 	 
C 	 -134.57 	 -1.30138 	 2.44947 	 
H 	 -133.754 	 -0.736899 	 2.14498 	 
H 	 -134.363 	 -1.93093 	 3.3682 	 
H 	 -134.874 	 -1.94013 	 1.66335 	 
S 	 -137.664 	 6.0248 	 5.47126 	 
C 	 -137.495 	 6.96538 	 6.91219 	 
C 	 -137.028 	 6.24593 	 7.92841 	 
C 	 -136.87 	 4.86733 	 7.6266 	 
C 	 -137.322 	 4.53764 	 6.36591 	 
H 	 -136.736 	 6.76091 	 8.83957 	 
C 	 -136.243 	 3.90574 	 8.61101 	 
H 	 -136.381 	 2.91775 	 8.27691 	 
H 	 -136.869 	 3.9691 	 9.50992 	 
C 	 -134.735 	 4.296 	 8.97588 	 
H 	 -134.308 	 3.43746 	 9.45177 	 
H 	 -134.613 	 5.1904 	 9.60072 	 
C 	 -133.824 	 4.37824 	 7.75928 	 
H 	 -134.278 	 5.10711 	 7.04126 	 
H 	 -133.642 	 3.43968 	 7.17877 	 
H 	 -132.804 	 4.48296 	 8.1566 	 
H 	 -138.506 	 0.257904 	 4.1349 	 
H 	 -137.492 	 8.05524 	 6.88443 	 
