34

S 	 -105.276 	 49.5222 	 -82.0055 	 
C 	 -103.678 	 49.8343 	 -81.4401 	 
C 	 -102.751 	 49.2706 	 -82.3219 	 
C 	 -103.394 	 48.6477 	 -83.4658 	 
C 	 -104.782 	 48.567 	 -83.2973 	 
H 	 -102.897 	 48.1932 	 -84.2887 	 
C 	 -101.259 	 49.5551 	 -82.2288 	 
H 	 -100.817 	 48.5816 	 -82.1542 	 
H 	 -101.051 	 50.0733 	 -81.3015 	 
C 	 -100.638 	 50.247 	 -83.3999 	 
H 	 -99.4869 	 50.3781 	 -83.3831 	 
H 	 -100.658 	 49.6463 	 -84.3141 	 
C 	 -101.352 	 51.6191 	 -83.7628 	 
H 	 -100.939 	 52.4494 	 -83.14 	 
H 	 -101.106 	 51.992 	 -84.7385 	 
H 	 -102.437 	 51.5571 	 -83.6735 	 
S 	 -106.929 	 48.9176 	 -84.9018 	 
C 	 -107.75 	 47.5322 	 -85.5558 	 
C 	 -107.097 	 46.3391 	 -85.3292 	 
C 	 -105.934 	 46.6053 	 -84.5158 	 
C 	 -105.779 	 47.8956 	 -84.163 	 
H 	 -107.352 	 45.397 	 -85.7804 	 
C 	 -104.966 	 45.5149 	 -84.1279 	 
H 	 -104.032 	 46.068 	 -83.9069 	 
H 	 -104.688 	 44.9299 	 -85.0315 	 
C 	 -105.469 	 44.6567 	 -82.9741 	 
H 	 -104.926 	 43.7447 	 -83.1265 	 
H 	 -106.467 	 44.2756 	 -83.1084 	 
C 	 -105.429 	 45.2328 	 -81.4941 	 
H 	 -105.799 	 46.219 	 -81.4518 	 
H 	 -104.349 	 45.4659 	 -81.3736 	 
H 	 -105.83 	 44.5139 	 -80.7913 	 
H 	 -103.398 	 50.4485 	 -80.5824 	 
H 	 -108.592 	 47.547 	 -86.2808 	 
