34

S 	 -31.4706 	 -36.1005 	 -91.8372 	 
C 	 -31.2239 	 -34.4021 	 -91.4485 	 
C 	 -32.1735 	 -33.8675 	 -90.6461 	 
C 	 -33.0756 	 -34.9219 	 -90.2705 	 
C 	 -32.8686 	 -36.1458 	 -90.8656 	 
H 	 -33.9204 	 -34.7345 	 -89.6351 	 
C 	 -32.2637 	 -32.4222 	 -90.1917 	 
H 	 -33.0776 	 -32.1222 	 -90.7568 	 
H 	 -31.3851 	 -31.98 	 -90.5476 	 
C 	 -32.7684 	 -32.2178 	 -88.7936 	 
H 	 -32.9028 	 -31.1335 	 -88.6111 	 
H 	 -33.7546 	 -32.7173 	 -88.6653 	 
C 	 -31.7943 	 -32.6857 	 -87.7367 	 
H 	 -31.6136 	 -33.7524 	 -87.73 	 
H 	 -30.8373 	 -32.1554 	 -87.8097 	 
H 	 -32.2118 	 -32.4852 	 -86.7567 	 
S 	 -32.8777 	 -38.8409 	 -90.6738 	 
C 	 -34.4134 	 -39.656 	 -90.1722 	 
C 	 -35.4677 	 -38.7691 	 -90.0581 	 
C 	 -35.0526 	 -37.428 	 -90.3667 	 
C 	 -33.6769 	 -37.3085 	 -90.5907 	 
H 	 -36.4357 	 -39.1468 	 -89.8266 	 
C 	 -36.1269 	 -36.4395 	 -90.5336 	 
H 	 -35.9196 	 -35.4855 	 -90.076 	 
H 	 -37.0677 	 -36.7386 	 -90.0226 	 
C 	 -36.4083 	 -36.0616 	 -91.949 	 
H 	 -35.4755 	 -35.7693 	 -92.4406 	 
H 	 -37.0727 	 -35.2107 	 -92.0963 	 
C 	 -36.8967 	 -37.2391 	 -92.7657 	 
H 	 -36.1193 	 -37.9933 	 -92.8663 	 
H 	 -37.1674 	 -36.92 	 -93.7223 	 
H 	 -37.8061 	 -37.727 	 -92.2664 	 
H 	 -30.3523 	 -33.8718 	 -91.7876 	 
H 	 -34.5063 	 -40.6513 	 -89.8008 	 
