34

S 	 -143.003 	 2.77765 	 15.6809 	 
C 	 -142.48 	 2.1013 	 14.1147 	 
C 	 -143.568 	 2.16097 	 13.2156 	 
C 	 -144.714 	 2.87215 	 13.7927 	 
C 	 -144.566 	 3.28612 	 15.1213 	 
H 	 -145.561 	 3.22181 	 13.2928 	 
C 	 -143.585 	 1.78074 	 11.7778 	 
H 	 -142.801 	 1.06862 	 11.6878 	 
H 	 -143.268 	 2.69266 	 11.283 	 
C 	 -144.948 	 1.25396 	 11.2825 	 
H 	 -145.278 	 0.392021 	 11.8663 	 
H 	 -145.699 	 1.98053 	 11.4003 	 
C 	 -144.908 	 1.05304 	 9.73745 	 
H 	 -145.789 	 0.535901 	 9.40095 	 
H 	 -144.725 	 1.94385 	 9.13514 	 
H 	 -144.09 	 0.385216 	 9.42877 	 
S 	 -144.5 	 5.47459 	 16.7435 	 
C 	 -145.795 	 6.62602 	 16.8282 	 
C 	 -146.879 	 6.02377 	 16.2066 	 
C 	 -146.68 	 4.77086 	 15.516 	 
C 	 -145.36 	 4.36064 	 15.7129 	 
H 	 -147.858 	 6.44151 	 16.4156 	 
C 	 -147.8 	 4.01245 	 14.756 	 
H 	 -147.46 	 3.71464 	 13.7905 	 
H 	 -148.609 	 4.75058 	 14.6643 	 
C 	 -148.404 	 2.80681 	 15.4812 	 
H 	 -148.859 	 3.09288 	 16.4526 	 
H 	 -147.587 	 2.19125 	 15.7142 	 
C 	 -149.277 	 1.97954 	 14.5561 	 
H 	 -149.897 	 1.19733 	 15.0217 	 
H 	 -148.668 	 1.53544 	 13.8115 	 
H 	 -149.941 	 2.6752 	 14.1776 	 
H 	 -141.538 	 1.61602 	 13.9189 	 
H 	 -145.833 	 7.54757 	 17.3336 	 
