34

S 	 30.8516 	 -29.8442 	 -131.223 	 
C 	 30.5767 	 -28.32 	 -132.018 	 
C 	 29.2861 	 -27.8532 	 -131.697 	 
C 	 28.6234 	 -28.6184 	 -130.697 	 
C 	 29.4216 	 -29.6748 	 -130.259 	 
H 	 27.6026 	 -28.5831 	 -130.357 	 
C 	 28.646 	 -26.6052 	 -132.086 	 
H 	 29.3168 	 -26.0611 	 -132.744 	 
H 	 28.614 	 -25.9787 	 -131.215 	 
C 	 27.2655 	 -26.66 	 -132.855 	 
H 	 27.5297 	 -27.2234 	 -133.763 	 
H 	 26.6683 	 -27.3241 	 -132.261 	 
C 	 26.5872 	 -25.3021 	 -133.111 	 
H 	 26.8557 	 -24.8761 	 -134.102 	 
H 	 25.5258 	 -25.4372 	 -133.034 	 
H 	 26.8442 	 -24.6207 	 -132.299 	 
S 	 29.1539 	 -32.3978 	 -130.172 	 
C 	 28.4033 	 -33.2522 	 -128.776 	 
C 	 28.1066 	 -32.2828 	 -127.823 	 
C 	 28.4455 	 -30.9236 	 -128.123 	 
C 	 29.0635 	 -30.8102 	 -129.376 	 
H 	 27.711 	 -32.6595 	 -126.927 	 
C 	 28.1884 	 -29.8299 	 -127.066 	 
H 	 28.3684 	 -30.37 	 -126.149 	 
H 	 27.1667 	 -29.556 	 -127.086 	 
C 	 29.1128 	 -28.5172 	 -127.18 	 
H 	 28.9022 	 -27.9376 	 -128.046 	 
H 	 30.1615 	 -28.8725 	 -127.182 	 
C 	 28.7629 	 -27.5504 	 -126 	 
H 	 29.7062 	 -26.9993 	 -125.794 	 
H 	 28.6024 	 -28.0048 	 -125.101 	 
H 	 27.9781 	 -26.8259 	 -126.102 	 
H 	 31.2032 	 -27.9734 	 -132.83 	 
H 	 28.354 	 -34.3065 	 -128.643 	 
