34

S 	 -133.367 	 68.4789 	 -55.9625 	 
C 	 -133.855 	 67.7303 	 -57.494 	 
C 	 -135.058 	 68.228 	 -57.9475 	 
C 	 -135.602 	 69.1302 	 -57.0062 	 
C 	 -134.913 	 69.2662 	 -55.7716 	 
H 	 -136.563 	 69.5282 	 -57.124 	 
C 	 -135.742 	 67.854 	 -59.3008 	 
H 	 -134.951 	 67.2134 	 -59.7275 	 
H 	 -135.841 	 68.6645 	 -59.9739 	 
C 	 -136.992 	 66.9818 	 -59.2344 	 
H 	 -137.797 	 67.5711 	 -58.709 	 
H 	 -137.313 	 66.7186 	 -60.303 	 
C 	 -136.755 	 65.7307 	 -58.4414 	 
H 	 -135.856 	 65.1903 	 -58.7653 	 
H 	 -136.534 	 65.8834 	 -57.3725 	 
H 	 -137.658 	 65.0826 	 -58.4911 	 
S 	 -134.18 	 71.3871 	 -54.1389 	 
C 	 -135.258 	 71.9206 	 -52.9003 	 
C 	 -136.47 	 71.2618 	 -52.9437 	 
C 	 -136.491 	 70.2291 	 -53.9781 	 
C 	 -135.297 	 70.1694 	 -54.6839 	 
H 	 -137.282 	 71.5863 	 -52.3101 	 
C 	 -137.75 	 69.4906 	 -54.3006 	 
H 	 -138.067 	 68.9955 	 -53.3821 	 
H 	 -137.435 	 68.7318 	 -54.9828 	 
C 	 -138.917 	 70.4186 	 -54.7286 	 
H 	 -138.605 	 71.0785 	 -55.4892 	 
H 	 -139.165 	 71.0638 	 -53.8307 	 
C 	 -140.22 	 69.9193 	 -55.3274 	 
H 	 -140.708 	 69.0954 	 -54.7755 	 
H 	 -139.921 	 69.445 	 -56.284 	 
H 	 -140.871 	 70.7652 	 -55.4773 	 
H 	 -133.137 	 67.1579 	 -58.1084 	 
H 	 -135.054 	 72.7799 	 -52.1987 	 
