34

S 	 33.5975 	 -31.6866 	 -117.097 	 
C 	 34.0508 	 -30.3881 	 -116.021 	 
C 	 35.2463 	 -30.7205 	 -115.384 	 
C 	 35.8476 	 -31.8317 	 -116.01 	 
C 	 35.0267 	 -32.5422 	 -116.816 	 
H 	 36.8177 	 -32.2919 	 -115.72 	 
C 	 35.9681 	 -29.8735 	 -114.373 	 
H 	 35.2874 	 -29.1196 	 -113.982 	 
H 	 36.824 	 -29.4583 	 -114.898 	 
C 	 36.4446 	 -30.6992 	 -113.137 	 
H 	 37.1965 	 -31.4457 	 -113.429 	 
H 	 36.8373 	 -30.0095 	 -112.419 	 
C 	 35.3916 	 -31.4672 	 -112.299 	 
H 	 35.8668 	 -32.2287 	 -111.772 	 
H 	 34.8884 	 -30.8473 	 -111.59 	 
H 	 34.6045 	 -31.8828 	 -112.975 	 
S 	 35.1076 	 -33.9157 	 -119.331 	 
C 	 35.7137 	 -35.4913 	 -119.435 	 
C 	 36.1636 	 -35.9583 	 -118.219 	 
C 	 35.9106 	 -35.0035 	 -117.178 	 
C 	 35.3795 	 -33.7979 	 -117.611 	 
H 	 36.6662 	 -36.9565 	 -118.13 	 
C 	 36.2738 	 -35.2884 	 -115.686 	 
H 	 36.975 	 -34.5488 	 -115.458 	 
H 	 36.9512 	 -36.1096 	 -115.634 	 
C 	 35.1082 	 -35.4241 	 -114.701 	 
H 	 34.5318 	 -36.3305 	 -114.819 	 
H 	 34.4327 	 -34.6901 	 -114.969 	 
C 	 35.6491 	 -35.2516 	 -113.262 	 
H 	 36.5858 	 -35.7137 	 -113.084 	 
H 	 34.8743 	 -35.5392 	 -112.495 	 
H 	 35.9568 	 -34.2005 	 -113.117 	 
H 	 33.4235 	 -29.6632 	 -115.617 	 
H 	 35.7928 	 -36.0962 	 -120.337 	 
