34

S 	 -88.0373 	 -2.18744 	 7.74273 	 
C 	 -87.729 	 -1.77383 	 6.08191 	 
C 	 -86.7642 	 -2.58114 	 5.56061 	 
C 	 -86.204 	 -3.46825 	 6.56844 	 
C 	 -86.7575 	 -3.39089 	 7.79735 	 
H 	 -85.4578 	 -4.19722 	 6.43819 	 
C 	 -86.1898 	 -2.59848 	 4.19655 	 
H 	 -87.0063 	 -2.42227 	 3.54191 	 
H 	 -85.7901 	 -3.56749 	 3.8139 	 
C 	 -85.291 	 -1.41036 	 3.82543 	 
H 	 -85.0517 	 -1.42008 	 2.80987 	 
H 	 -85.7704 	 -0.501623 	 3.98033 	 
C 	 -83.9983 	 -1.1939 	 4.63967 	 
H 	 -83.3383 	 -2.0183 	 4.61038 	 
H 	 -83.4337 	 -0.365455 	 4.1413 	 
H 	 -84.2606 	 -0.855969 	 5.71201 	 
S 	 -87.6603 	 -5.05588 	 9.83124 	 
C 	 -86.4307 	 -5.84601 	 10.7878 	 
C 	 -85.1997 	 -5.33461 	 10.5715 	 
C 	 -85.1482 	 -4.31905 	 9.54204 	 
C 	 -86.4393 	 -4.15121 	 8.99734 	 
H 	 -84.3687 	 -5.62221 	 11.2539 	 
C 	 -83.8176 	 -3.54402 	 9.26996 	 
H 	 -83.6039 	 -3.05373 	 10.1388 	 
H 	 -84.0913 	 -2.89185 	 8.48858 	 
C 	 -82.6763 	 -4.42186 	 8.75649 	 
H 	 -82.6962 	 -4.60883 	 7.71952 	 
H 	 -82.7323 	 -5.35235 	 9.31811 	 
C 	 -81.378 	 -3.66547 	 9.10886 	 
H 	 -81.2647 	 -3.42025 	 10.1432 	 
H 	 -81.291 	 -2.83037 	 8.4646 	 
H 	 -80.4922 	 -4.28021 	 8.79789 	 
H 	 -88.2593 	 -1.0113 	 5.57168 	 
H 	 -86.447 	 -6.71357 	 11.4727 	 
