34

S 	 -121.115 	 63.5166 	 -37.2481 	 
C 	 -121.408 	 64.9969 	 -36.2609 	 
C 	 -120.218 	 65.3928 	 -35.6431 	 
C 	 -119.083 	 64.6646 	 -36.0793 	 
C 	 -119.417 	 63.6387 	 -36.9549 	 
H 	 -118.057 	 64.9145 	 -35.8461 	 
C 	 -120.145 	 66.4708 	 -34.6635 	 
H 	 -119.909 	 66.1828 	 -33.6647 	 
H 	 -121.213 	 66.9249 	 -34.5985 	 
C 	 -119.223 	 67.6195 	 -35.0893 	 
H 	 -119.259 	 68.4817 	 -34.3965 	 
H 	 -118.213 	 67.174 	 -35.0482 	 
C 	 -119.334 	 68.1809 	 -36.4844 	 
H 	 -119.556 	 67.4722 	 -37.2374 	 
H 	 -120.261 	 68.7864 	 -36.4762 	 
H 	 -118.468 	 68.8029 	 -36.809 	 
S 	 -118.191 	 63.0466 	 -39.3036 	 
C 	 -116.958 	 61.8725 	 -39.3771 	 
C 	 -116.595 	 61.4131 	 -38.1473 	 
C 	 -117.519 	 61.862 	 -37.1416 	 
C 	 -118.474 	 62.7379 	 -37.6418 	 
H 	 -115.673 	 60.8245 	 -38.0342 	 
C 	 -117.42 	 61.3633 	 -35.736 	 
H 	 -118.148 	 60.5355 	 -35.6046 	 
H 	 -117.76 	 62.1772 	 -35.0825 	 
C 	 -116.089 	 60.9046 	 -35.2601 	 
H 	 -115.346 	 61.735 	 -35.4116 	 
H 	 -115.76 	 59.9729 	 -35.7939 	 
C 	 -116.102 	 60.415 	 -33.796 	 
H 	 -116.76 	 59.5377 	 -33.6942 	 
H 	 -116.338 	 61.0998 	 -33.0422 	 
H 	 -115.094 	 60.1297 	 -33.5185 	 
H 	 -122.447 	 65.3378 	 -36.1335 	 
H 	 -116.286 	 61.6551 	 -40.2474 	 
