34

S 	 -33.0586 	 -35.5639 	 -89.0735 	 
C 	 -31.8028 	 -34.3164 	 -88.95 	 
C 	 -30.9178 	 -34.2735 	 -90.0213 	 
C 	 -31.1835 	 -35.3843 	 -90.8721 	 
C 	 -32.2987 	 -36.135 	 -90.5437 	 
H 	 -30.835 	 -35.6401 	 -91.8372 	 
C 	 -29.7896 	 -33.3162 	 -90.2245 	 
H 	 -29.2714 	 -33.7615 	 -91.1302 	 
H 	 -29.1251 	 -33.366 	 -89.3505 	 
C 	 -30.0654 	 -31.8513 	 -90.5755 	 
H 	 -30.73 	 -31.5354 	 -89.7369 	 
H 	 -29.2461 	 -31.2462 	 -90.5139 	 
C 	 -30.7335 	 -31.7365 	 -91.9311 	 
H 	 -30.1402 	 -32.0762 	 -92.7953 	 
H 	 -31.6871 	 -32.2057 	 -91.9911 	 
H 	 -30.9323 	 -30.6415 	 -92.0707 	 
S 	 -32.2149 	 -38.8417 	 -91.2301 	 
C 	 -33.5086 	 -39.5838 	 -92.1845 	 
C 	 -34.3474 	 -38.5691 	 -92.587 	 
C 	 -34.0246 	 -37.2979 	 -91.966 	 
C 	 -32.8664 	 -37.221 	 -91.3056 	 
H 	 -35.2467 	 -38.8537 	 -93.0885 	 
C 	 -34.9784 	 -36.0468 	 -92.2187 	 
H 	 -34.7587 	 -35.3821 	 -91.4804 	 
H 	 -35.946 	 -36.4518 	 -91.9479 	 
C 	 -35.0277 	 -35.5561 	 -93.5324 	 
H 	 -35.3725 	 -36.3924 	 -94.1122 	 
H 	 -33.9534 	 -35.4945 	 -93.855 	 
C 	 -35.8637 	 -34.3073 	 -93.7433 	 
H 	 -36.9273 	 -34.5642 	 -93.4485 	 
H 	 -35.8736 	 -34.1495 	 -94.8746 	 
H 	 -35.3836 	 -33.4587 	 -93.2034 	 
H 	 -31.7556 	 -33.5117 	 -88.139 	 
H 	 -33.6885 	 -40.5817 	 -92.2564 	 
