34

S 	 -48.124 	 10.8079 	 25.5682 	 
C 	 -48.4393 	 11.6914 	 27.0884 	 
C 	 -49.7211 	 12.165 	 27.1104 	 
C 	 -50.4133 	 11.9798 	 25.8616 	 
C 	 -49.7113 	 11.3106 	 24.9076 	 
H 	 -51.4122 	 12.3233 	 25.6465 	 
C 	 -50.3804 	 12.7817 	 28.3027 	 
H 	 -49.7448 	 12.9367 	 29.1527 	 
H 	 -51.0735 	 11.9779 	 28.5874 	 
C 	 -51.359 	 13.991 	 28.0853 	 
H 	 -52.2518 	 13.6785 	 27.6046 	 
H 	 -51.6493 	 14.3464 	 29.0831 	 
C 	 -50.6326 	 15.199 	 27.3759 	 
H 	 -51.3594 	 16.029 	 27.37 	 
H 	 -49.7728 	 15.5319 	 27.9328 	 
H 	 -50.3609 	 15.0835 	 26.2918 	 
S 	 -49.999 	 9.206 	 23.3254 	 
C 	 -50.3577 	 9.41232 	 21.6243 	 
C 	 -50.7089 	 10.7616 	 21.3929 	 
C 	 -50.6432 	 11.6037 	 22.5331 	 
C 	 -50.0684 	 10.918 	 23.5771 	 
H 	 -50.9773 	 11.0332 	 20.4136 	 
C 	 -51.0641 	 13.0488 	 22.6872 	 
H 	 -51.58 	 13.0581 	 23.6131 	 
H 	 -51.7554 	 13.208 	 21.8644 	 
C 	 -50.1139 	 14.1891 	 22.6464 	 
H 	 -49.5092 	 14.1665 	 23.5422 	 
H 	 -50.5975 	 15.2194 	 22.671 	 
C 	 -49.2388 	 14.095 	 21.4164 	 
H 	 -49.7514 	 14.1964 	 20.4763 	 
H 	 -48.5314 	 13.3122 	 21.4708 	 
H 	 -48.6108 	 14.9749 	 21.3769 	 
H 	 -47.9298 	 11.5074 	 28.0199 	 
H 	 -50.2068 	 8.72181 	 20.8079 	 
