34

S 	 -54.5467 	 25.3872 	 25.6894 	 
C 	 -53.5525 	 24.6745 	 24.4762 	 
C 	 -52.1946 	 24.6466 	 24.9016 	 
C 	 -52.0131 	 25.1425 	 26.2179 	 
C 	 -53.2225 	 25.6067 	 26.7939 	 
H 	 -51.0681 	 25.2791 	 26.7381 	 
C 	 -50.9866 	 24.1473 	 24.0681 	 
H 	 -50.823 	 23.0825 	 24.4238 	 
H 	 -50.0641 	 24.5439 	 24.4756 	 
C 	 -51.0939 	 24.243 	 22.3948 	 
H 	 -52.069 	 23.7332 	 22.1122 	 
H 	 -51.0489 	 25.2743 	 22.0474 	 
C 	 -49.981 	 23.3765 	 21.6485 	 
H 	 -50.0321 	 22.2779 	 21.7217 	 
H 	 -50.2287 	 23.4604 	 20.6114 	 
H 	 -48.9729 	 23.7763 	 21.7733 	 
S 	 -53.6863 	 24.8638 	 29.4403 	 
C 	 -53.8278 	 26.0702 	 30.6511 	 
C 	 -53.7101 	 27.3105 	 30.1311 	 
C 	 -53.5486 	 27.3302 	 28.7362 	 
C 	 -53.4267 	 26.0873 	 28.1817 	 
H 	 -53.8789 	 28.2085 	 30.7156 	 
C 	 -53.5896 	 28.6804 	 28.0205 	 
H 	 -54.4181 	 29.2835 	 28.3902 	 
H 	 -53.8814 	 28.5441 	 26.9817 	 
C 	 -52.3037 	 29.491 	 28.0919 	 
H 	 -52.2497 	 29.8101 	 29.1142 	 
H 	 -52.3545 	 30.3925 	 27.5294 	 
C 	 -51.0537 	 28.7351 	 27.6291 	 
H 	 -51.0345 	 28.7104 	 26.5054 	 
H 	 -50.9524 	 27.7798 	 28.1356 	 
H 	 -50.152 	 29.3442 	 27.805 	 
H 	 -53.807 	 24.5682 	 23.4555 	 
H 	 -53.9467 	 25.7392 	 31.731 	 
