34

S 	 -135.153 	 15.308 	 -4.43607 	 
C 	 -133.635 	 16.0965 	 -4.22409 	 
C 	 -132.85 	 15.5021 	 -3.24496 	 
C 	 -133.521 	 14.4298 	 -2.64835 	 
C 	 -134.762 	 14.1511 	 -3.13001 	 
H 	 -133.072 	 13.9096 	 -1.80998 	 
C 	 -131.447 	 16.0433 	 -2.76349 	 
H 	 -131.384 	 15.8398 	 -1.68675 	 
H 	 -131.462 	 17.0863 	 -2.99746 	 
C 	 -130.248 	 15.5008 	 -3.49655 	 
H 	 -129.291 	 15.7033 	 -2.93034 	 
H 	 -130.365 	 14.4272 	 -3.57186 	 
C 	 -130.013 	 16.05 	 -4.89018 	 
H 	 -129.467 	 15.3181 	 -5.44578 	 
H 	 -130.967 	 16.3273 	 -5.24127 	 
H 	 -129.294 	 16.8805 	 -4.85588 	 
S 	 -137.134 	 14.0887 	 -1.70048 	 
C 	 -137.458 	 12.6428 	 -0.801853 	 
C 	 -136.79 	 11.5886 	 -1.24786 	 
C 	 -135.786 	 11.9349 	 -2.16892 	 
C 	 -135.73 	 13.3221 	 -2.45112 	 
H 	 -136.764 	 10.6881 	 -0.714163 	 
C 	 -134.797 	 10.9098 	 -2.64809 	 
H 	 -135.001 	 9.9301 	 -2.10642 	 
H 	 -133.807 	 11.1487 	 -2.30758 	 
C 	 -134.843 	 10.5605 	 -4.14728 	 
H 	 -134.475 	 11.361 	 -4.90007 	 
H 	 -135.87 	 10.4322 	 -4.40514 	 
C 	 -134.22 	 9.20179 	 -4.35986 	 
H 	 -133.165 	 9.16844 	 -4.04709 	 
H 	 -134.276 	 9.04474 	 -5.39135 	 
H 	 -134.762 	 8.42958 	 -3.84073 	 
H 	 -133.23 	 17.0229 	 -4.63362 	 
H 	 -138.121 	 12.5643 	 0.00142354 	 
