34

S 	 -37.5103 	 18.5642 	 14.2212 	 
C 	 -38.5753 	 17.3588 	 15.0296 	 
C 	 -39.2015 	 17.9382 	 16.1178 	 
C 	 -38.7941 	 19.306 	 16.2796 	 
C 	 -37.9397 	 19.7916 	 15.335 	 
H 	 -39.1376 	 19.9472 	 16.9594 	 
C 	 -39.9788 	 17.0936 	 17.1665 	 
H 	 -40.9383 	 16.8682 	 16.7474 	 
H 	 -40.2434 	 17.7441 	 18.0382 	 
C 	 -39.2222 	 15.8554 	 17.6383 	 
H 	 -38.8579 	 15.2663 	 16.797 	 
H 	 -38.2625 	 16.2412 	 18.0542 	 
C 	 -39.9933 	 14.9905 	 18.6085 	 
H 	 -40.9863 	 15.051 	 18.2149 	 
H 	 -39.5651 	 13.9999 	 18.6494 	 
H 	 -39.9015 	 15.3912 	 19.6091 	 
S 	 -35.5325 	 21.1191 	 15.183 	 
C 	 -35.5129 	 22.8411 	 15.6142 	 
C 	 -36.7767 	 23.3017 	 15.9008 	 
C 	 -37.822 	 22.3496 	 15.7602 	 
C 	 -37.2712 	 21.0835 	 15.4525 	 
H 	 -37.0183 	 24.3684 	 15.9909 	 
C 	 -39.2953 	 22.7317 	 15.9888 	 
H 	 -39.2851 	 23.524 	 16.7543 	 
H 	 -39.8372 	 21.9023 	 16.4946 	 
C 	 -40.0886 	 23.2251 	 14.7976 	 
H 	 -39.5022 	 23.9407 	 14.3022 	 
H 	 -40.9363 	 23.6463 	 15.3187 	 
C 	 -40.4543 	 22.1065 	 13.8236 	 
H 	 -40.7953 	 21.1342 	 14.2767 	 
H 	 -39.6659 	 21.8052 	 13.0827 	 
H 	 -41.2802 	 22.3822 	 13.1299 	 
H 	 -38.8158 	 16.3629 	 14.6195 	 
H 	 -34.7074 	 23.5357 	 15.5153 	 
