34

S 	 -147.964 	 7.49582 	 7.89443 	 
C 	 -147.419 	 5.94294 	 8.49947 	 
C 	 -148.419 	 5.01581 	 8.51299 	 
C 	 -149.654 	 5.58622 	 7.95218 	 
C 	 -149.506 	 6.85786 	 7.48397 	 
H 	 -150.605 	 5.08763 	 7.83788 	 
C 	 -148.426 	 3.66513 	 9.19721 	 
H 	 -149.289 	 3.16485 	 8.79762 	 
H 	 -148.612 	 3.80302 	 10.2268 	 
C 	 -147.125 	 2.79282 	 8.9135 	 
H 	 -147.019 	 2.74354 	 7.81745 	 
H 	 -146.292 	 3.34585 	 9.1205 	 
C 	 -147.078 	 1.37274 	 9.55869 	 
H 	 -147.385 	 1.41613 	 10.6008 	 
H 	 -147.723 	 0.686367 	 9.09196 	 
H 	 -146.142 	 0.776409 	 9.53011 	 
S 	 -152.06 	 7.88713 	 7.15628 	 
C 	 -152.636 	 8.38903 	 5.6164 	 
C 	 -151.636 	 8.23745 	 4.64536 	 
C 	 -150.369 	 7.82446 	 5.21227 	 
C 	 -150.503 	 7.48355 	 6.5429 	 
H 	 -151.749 	 8.66427 	 3.64192 	 
C 	 -149.068 	 7.64628 	 4.50065 	 
H 	 -149.302 	 7.21444 	 3.55946 	 
H 	 -148.514 	 6.95011 	 5.08329 	 
C 	 -148.289 	 8.96438 	 4.50776 	 
H 	 -148.217 	 9.34449 	 5.50314 	 
H 	 -148.868 	 9.73284 	 4.01955 	 
C 	 -146.913 	 8.83976 	 3.88771 	 
H 	 -146.296 	 8.19053 	 4.46484 	 
H 	 -146.493 	 9.86512 	 3.93811 	 
H 	 -146.945 	 8.54006 	 2.8947 	 
H 	 -146.402 	 5.78601 	 8.95196 	 
H 	 -153.605 	 8.92962 	 5.44564 	 
