34

S 	 -102.667 	 46.5328 	 -102.947 	 
C 	 -103.262 	 48.0835 	 -102.65 	 
C 	 -102.578 	 48.7084 	 -101.597 	 
C 	 -101.672 	 47.812 	 -101.005 	 
C 	 -101.675 	 46.5349 	 -101.559 	 
H 	 -100.961 	 47.9387 	 -100.162 	 
C 	 -102.722 	 50.0941 	 -101.063 	 
H 	 -102.049 	 50.3168 	 -100.247 	 
H 	 -103.757 	 50.1672 	 -100.662 	 
C 	 -102.327 	 51.2258 	 -102.185 	 
H 	 -102.915 	 51.2396 	 -103.16 	 
H 	 -102.392 	 52.2265 	 -101.804 	 
C 	 -100.907 	 50.9945 	 -102.662 	 
H 	 -100.859 	 50.0409 	 -103.153 	 
H 	 -100.642 	 51.8285 	 -103.377 	 
H 	 -100.184 	 50.9045 	 -101.783 	 
S 	 -100.568 	 45.2075 	 -99.4567 	 
C 	 -99.3679 	 43.8993 	 -99.8648 	 
C 	 -99.2422 	 43.7053 	 -101.19 	 
C 	 -100.014 	 44.595 	 -101.987 	 
C 	 -100.722 	 45.5108 	 -101.213 	 
H 	 -98.5997 	 42.9369 	 -101.553 	 
C 	 -99.975 	 44.5128 	 -103.464 	 
H 	 -100.96 	 44.8473 	 -103.758 	 
H 	 -99.8623 	 43.4459 	 -103.63 	 
C 	 -98.8275 	 45.1633 	 -104.17 	 
H 	 -98.9135 	 45.0383 	 -105.254 	 
H 	 -97.8943 	 44.6245 	 -103.95 	 
C 	 -98.5233 	 46.6489 	 -103.788 	 
H 	 -97.6417 	 46.9676 	 -104.268 	 
H 	 -98.3146 	 46.7541 	 -102.709 	 
H 	 -99.2808 	 47.3523 	 -104.072 	 
H 	 -103.864 	 48.5949 	 -103.322 	 
H 	 -98.7238 	 43.3544 	 -99.24 	 
