34

S 	 -63.5338 	 18.9991 	 -72.9368 	 
C 	 -62.6134 	 17.6271 	 -72.6323 	 
C 	 -62.6754 	 17.1546 	 -71.3424 	 
C 	 -63.4924 	 18.0042 	 -70.5726 	 
C 	 -64.1651 	 18.9432 	 -71.3057 	 
H 	 -63.8672 	 17.9083 	 -69.5579 	 
C 	 -62.0221 	 15.9349 	 -70.8006 	 
H 	 -62.0526 	 16.0487 	 -69.6514 	 
H 	 -60.9749 	 16.0719 	 -71.0503 	 
C 	 -62.632 	 14.5236 	 -71.2401 	 
H 	 -63.6759 	 14.5678 	 -71.2816 	 
H 	 -62.3021 	 14.3823 	 -72.2814 	 
C 	 -62.2285 	 13.3205 	 -70.3401 	 
H 	 -62.8692 	 12.485 	 -70.4706 	 
H 	 -61.233 	 13.0862 	 -70.6316 	 
H 	 -62.322 	 13.4663 	 -69.2772 	 
S 	 -64.9235 	 20.8265 	 -69.3867 	 
C 	 -66.0341 	 22.0505 	 -69.9138 	 
C 	 -66.7302 	 21.6931 	 -71.0257 	 
C 	 -66.124 	 20.5668 	 -71.66 	 
C 	 -65.0595 	 19.9719 	 -70.9123 	 
H 	 -67.4234 	 22.3468 	 -71.5489 	 
C 	 -66.6889 	 20.088 	 -72.9982 	 
H 	 -66.293 	 19.0719 	 -73.1383 	 
H 	 -66.42 	 20.6807 	 -73.8023 	 
C 	 -68.2563 	 20.0183 	 -73.1716 	 
H 	 -68.5036 	 19.7749 	 -74.1503 	 
H 	 -68.7409 	 20.9842 	 -73.0914 	 
C 	 -68.962 	 18.9167 	 -72.4141 	 
H 	 -70.0298 	 18.819 	 -72.444 	 
H 	 -68.9563 	 19.0009 	 -71.3566 	 
H 	 -68.4491 	 17.9622 	 -72.7737 	 
H 	 -62.0702 	 17.0843 	 -73.3547 	 
H 	 -66.2374 	 22.9477 	 -69.4083 	 
