34

S 	 -63.9056 	 16.0887 	 -121.556 	 
C 	 -62.5572 	 15.0903 	 -121.714 	 
C 	 -62.3274 	 14.3079 	 -120.548 	 
C 	 -63.4069 	 14.5422 	 -119.635 	 
C 	 -64.3504 	 15.4865 	 -120.035 	 
H 	 -63.6282 	 13.9594 	 -118.754 	 
C 	 -61.429 	 13.0911 	 -120.472 	 
H 	 -60.6381 	 13.2969 	 -121.211 	 
H 	 -61.953 	 12.3228 	 -120.958 	 
C 	 -60.8164 	 12.6663 	 -119.058 	 
H 	 -60.2837 	 13.4678 	 -118.463 	 
H 	 -61.6197 	 12.352 	 -118.47 	 
C 	 -59.8939 	 11.4826 	 -119.235 	 
H 	 -58.9876 	 11.7129 	 -119.784 	 
H 	 -59.5938 	 11.179 	 -118.23 	 
H 	 -60.3398 	 10.5776 	 -119.566 	 
S 	 -66.8968 	 16.4 	 -120.487 	 
C 	 -68.0326 	 16.4066 	 -119.104 	 
C 	 -67.4974 	 15.9946 	 -117.943 	 
C 	 -66.1243 	 15.5799 	 -118.126 	 
C 	 -65.6142 	 15.8068 	 -119.397 	 
H 	 -68.0876 	 15.9181 	 -117.074 	 
C 	 -65.3725 	 14.9978 	 -116.92 	 
H 	 -65.6433 	 15.5934 	 -116.025 	 
H 	 -64.2833 	 15.1435 	 -117.071 	 
C 	 -65.5071 	 13.4593 	 -116.546 	 
H 	 -65.4615 	 12.815 	 -117.418 	 
H 	 -66.4732 	 13.2182 	 -116.207 	 
C 	 -64.5209 	 13.0482 	 -115.411 	 
H 	 -64.6767 	 13.3576 	 -114.398 	 
H 	 -63.5129 	 13.408 	 -115.652 	 
H 	 -64.4488 	 11.9682 	 -115.459 	 
H 	 -61.9205 	 15.0148 	 -122.625 	 
H 	 -69.0516 	 16.7731 	 -119.113 	 
