34

S 	 -60.9692 	 16.1755 	 -106.849 	 
C 	 -62.4586 	 16.5165 	 -106.079 	 
C 	 -62.4818 	 16.1599 	 -104.707 	 
C 	 -61.2161 	 15.8607 	 -104.298 	 
C 	 -60.3051 	 15.5167 	 -105.34 	 
H 	 -60.9011 	 15.5112 	 -103.366 	 
C 	 -63.7382 	 16.1306 	 -103.866 	 
H 	 -64.5265 	 15.5436 	 -104.4 	 
H 	 -64.1713 	 17.1219 	 -104.108 	 
C 	 -63.7172 	 15.6807 	 -102.423 	 
H 	 -62.7903 	 15.1763 	 -102.271 	 
H 	 -63.5537 	 16.532 	 -101.815 	 
C 	 -64.9558 	 14.9541 	 -102.06 	 
H 	 -65.0209 	 13.9212 	 -102.358 	 
H 	 -65.0099 	 14.8746 	 -100.971 	 
H 	 -65.8524 	 15.5947 	 -102.344 	 
S 	 -57.7646 	 15.5919 	 -106.476 	 
C 	 -56.5245 	 14.7303 	 -105.673 	 
C 	 -56.973 	 13.9822 	 -104.634 	 
C 	 -58.3605 	 14.1609 	 -104.368 	 
C 	 -58.9513 	 15.0617 	 -105.255 	 
H 	 -56.2793 	 13.361 	 -104.05 	 
C 	 -59.0938 	 13.4951 	 -103.184 	 
H 	 -58.7075 	 12.4944 	 -103.046 	 
H 	 -60.139 	 13.2982 	 -103.445 	 
C 	 -59.0598 	 14.2442 	 -101.822 	 
H 	 -59.02 	 15.319 	 -102.018 	 
H 	 -58.117 	 14.1241 	 -101.337 	 
C 	 -60.2151 	 13.8734 	 -100.812 	 
H 	 -61.2193 	 14.1168 	 -101.182 	 
H 	 -59.9364 	 14.5151 	 -99.9721 	 
H 	 -60.2952 	 12.7764 	 -100.561 	 
H 	 -63.2887 	 16.9579 	 -106.555 	 
H 	 -55.4572 	 14.6546 	 -105.912 	 
