34

S 	 -64.7815 	 18.3306 	 -71.7874 	 
C 	 -64.3725 	 18.0739 	 -73.4589 	 
C 	 -65.5025 	 18.3049 	 -74.2276 	 
C 	 -66.7119 	 18.5883 	 -73.5066 	 
C 	 -66.4808 	 18.6839 	 -72.159 	 
H 	 -67.6803 	 18.6315 	 -73.9197 	 
C 	 -65.5701 	 18.08 	 -75.6807 	 
H 	 -64.9099 	 18.7959 	 -76.1764 	 
H 	 -66.5285 	 18.4251 	 -76.0268 	 
C 	 -65.2525 	 16.6963 	 -76.1649 	 
H 	 -64.2147 	 16.5808 	 -76.0763 	 
H 	 -65.8407 	 15.9496 	 -75.5548 	 
C 	 -65.6423 	 16.433 	 -77.6337 	 
H 	 -65.0417 	 17.1323 	 -78.2248 	 
H 	 -65.6534 	 15.4208 	 -77.9714 	 
H 	 -66.6819 	 16.7641 	 -77.8467 	 
S 	 -67.0789 	 18.5294 	 -69.5542 	 
C 	 -68.6027 	 19.045 	 -68.8633 	 
C 	 -69.4032 	 19.5909 	 -69.8424 	 
C 	 -68.8258 	 19.4325 	 -71.156 	 
C 	 -67.5179 	 18.9028 	 -71.1357 	 
H 	 -70.3921 	 20.0738 	 -69.5582 	 
C 	 -69.6091 	 20.057 	 -72.321 	 
H 	 -68.9669 	 20.3144 	 -73.1962 	 
H 	 -69.9436 	 21.0788 	 -72.0453 	 
C 	 -70.9564 	 19.2984 	 -72.6984 	 
H 	 -71.3328 	 19.907 	 -73.475 	 
H 	 -71.6185 	 19.3056 	 -71.8413 	 
C 	 -70.7747 	 17.8025 	 -73.2009 	 
H 	 -70.2503 	 17.9161 	 -74.1244 	 
H 	 -71.6624 	 17.2337 	 -73.3108 	 
H 	 -70.2004 	 17.2539 	 -72.5714 	 
H 	 -63.3413 	 17.814 	 -73.7427 	 
H 	 -68.7077 	 18.9862 	 -67.7846 	 
