34

S 	 -69.9972 	 6.56899 	 -113.225 	 
C 	 -70.7737 	 6.65436 	 -111.613 	 
C 	 -70.8616 	 7.97592 	 -111.163 	 
C 	 -70.2778 	 8.84599 	 -112.096 	 
C 	 -69.773 	 8.27142 	 -113.262 	 
H 	 -70.2792 	 9.90845 	 -112.073 	 
C 	 -71.465 	 8.42943 	 -109.881 	 
H 	 -70.9302 	 9.3142 	 -109.558 	 
H 	 -71.0903 	 7.61754 	 -109.234 	 
C 	 -72.9714 	 8.46202 	 -109.836 	 
H 	 -73.3173 	 9.17671 	 -110.575 	 
H 	 -73.4087 	 7.46842 	 -110.012 	 
C 	 -73.4564 	 8.86483 	 -108.39 	 
H 	 -74.4845 	 9.00977 	 -108.301 	 
H 	 -73.2898 	 8.08322 	 -107.646 	 
H 	 -73.0671 	 9.79877 	 -108.071 	 
S 	 -70.0735 	 8.39219 	 -115.884 	 
C 	 -69.2137 	 9.60222 	 -116.81 	 
C 	 -68.2467 	 10.2572 	 -116.052 	 
C 	 -68.2386 	 9.80785 	 -114.745 	 
C 	 -69.2957 	 8.929 	 -114.464 	 
H 	 -67.6178 	 11.1236 	 -116.414 	 
C 	 -67.2298 	 10.3349 	 -113.773 	 
H 	 -67.7496 	 10.7844 	 -113 	 
H 	 -66.548 	 11.1262 	 -114.261 	 
C 	 -66.405 	 9.25553 	 -113.247 	 
H 	 -67.1438 	 8.50748 	 -112.891 	 
H 	 -65.8906 	 9.56359 	 -112.416 	 
C 	 -65.4404 	 8.4248 	 -114.169 	 
H 	 -64.6875 	 8.99777 	 -114.492 	 
H 	 -65.9257 	 8.07896 	 -115.134 	 
H 	 -65.0171 	 7.56377 	 -113.567 	 
H 	 -71.1195 	 5.80485 	 -111.015 	 
H 	 -69.4514 	 9.85623 	 -117.854 	 
