34

S 	 -100.355 	 3.21449 	 -106.924 	 
C 	 -100.949 	 4.12757 	 -105.551 	 
C 	 -99.9438 	 4.70087 	 -104.767 	 
C 	 -98.7064 	 4.49713 	 -105.383 	 
C 	 -98.696 	 3.60982 	 -106.445 	 
H 	 -97.8045 	 4.97058 	 -104.992 	 
C 	 -100.142 	 5.49439 	 -103.41 	 
H 	 -100.579 	 4.77575 	 -102.745 	 
H 	 -100.824 	 6.32388 	 -103.521 	 
C 	 -98.9576 	 6.01751 	 -102.624 	 
H 	 -98.4673 	 5.12593 	 -102.373 	 
H 	 -98.4027 	 6.69918 	 -103.192 	 
C 	 -99.363 	 6.72925 	 -101.273 	 
H 	 -99.9167 	 5.98791 	 -100.71 	 
H 	 -98.4451 	 7.23243 	 -100.766 	 
H 	 -99.9766 	 7.58251 	 -101.542 	 
S 	 -97.6503 	 2.8859 	 -108.943 	 
C 	 -95.9628 	 2.41713 	 -108.973 	 
C 	 -95.3527 	 2.43423 	 -107.76 	 
C 	 -96.2859 	 2.75242 	 -106.693 	 
C 	 -97.5343 	 3.12497 	 -107.163 	 
H 	 -94.343 	 2.09517 	 -107.707 	 
C 	 -95.8423 	 2.56937 	 -105.282 	 
H 	 -95.6427 	 1.51659 	 -105.056 	 
H 	 -96.638 	 2.93086 	 -104.581 	 
C 	 -94.6406 	 3.34782 	 -104.883 	 
H 	 -94.7735 	 4.39634 	 -104.874 	 
H 	 -93.8267 	 3.0871 	 -105.633 	 
C 	 -94.1454 	 2.93692 	 -103.462 	 
H 	 -93.9433 	 1.836 	 -103.45 	 
H 	 -94.9185 	 3.02482 	 -102.699 	 
H 	 -93.2997 	 3.38058 	 -103.026 	 
H 	 -101.945 	 4.03971 	 -105.129 	 
H 	 -95.4549 	 2.01789 	 -109.854 	 
