34

S 	 -112.045 	 24.2553 	 -112.187 	 
C 	 -111.041 	 23.0596 	 -111.365 	 
C 	 -110.311 	 22.2606 	 -112.178 	 
C 	 -110.604 	 22.6116 	 -113.543 	 
C 	 -111.403 	 23.7212 	 -113.759 	 
H 	 -110.2 	 22.0312 	 -114.342 	 
C 	 -109.413 	 21.1136 	 -111.661 	 
H 	 -109.528 	 20.3336 	 -112.432 	 
H 	 -109.829 	 20.7247 	 -110.712 	 
C 	 -107.852 	 21.4333 	 -111.438 	 
H 	 -107.798 	 22.1293 	 -110.6 	 
H 	 -107.33 	 20.6237 	 -110.888 	 
C 	 -107.024 	 21.7162 	 -112.681 	 
H 	 -107.199 	 22.6711 	 -113.072 	 
H 	 -105.974 	 21.6284 	 -112.435 	 
H 	 -107.246 	 20.9691 	 -113.524 	 
S 	 -113.719 	 24.2459 	 -115.333 	 
C 	 -113.498 	 24.6516 	 -117.009 	 
C 	 -112.19 	 24.691 	 -117.349 	 
C 	 -111.245 	 24.3943 	 -116.28 	 
C 	 -111.913 	 24.2389 	 -115.059 	 
H 	 -111.967 	 25.0004 	 -118.353 	 
C 	 -109.703 	 24.31 	 -116.48 	 
H 	 -109.458 	 23.2488 	 -116.479 	 
H 	 -109.196 	 24.7735 	 -115.569 	 
C 	 -108.973 	 24.9026 	 -117.725 	 
H 	 -109.341 	 24.3566 	 -118.691 	 
H 	 -107.952 	 24.5929 	 -117.779 	 
C 	 -109.127 	 26.4101 	 -117.933 	 
H 	 -108.64 	 26.755 	 -118.863 	 
H 	 -108.704 	 26.8873 	 -117.125 	 
H 	 -110.203 	 26.6445 	 -117.941 	 
H 	 -110.933 	 23.0075 	 -110.315 	 
H 	 -114.282 	 24.9385 	 -117.673 	 
