34

S 	 -47.769 	 12.6939 	 26.5984 	 
C 	 -47.4132 	 13.1235 	 24.8931 	 
C 	 -48.2496 	 12.5339 	 24.013 	 
C 	 -49.3298 	 11.8969 	 24.7485 	 
C 	 -49.3194 	 12.0405 	 26.1577 	 
H 	 -50.0691 	 11.3163 	 24.3056 	 
C 	 -48.1567 	 12.5704 	 22.4837 	 
H 	 -47.0658 	 12.4156 	 22.2937 	 
H 	 -48.2508 	 13.5908 	 22.2047 	 
C 	 -49.0461 	 11.513 	 21.6993 	 
H 	 -48.8922 	 10.4456 	 21.9505 	 
H 	 -50.0162 	 11.7246 	 21.919 	 
C 	 -48.8144 	 11.6486 	 20.1653 	 
H 	 -49.1139 	 12.6075 	 19.8328 	 
H 	 -47.8209 	 11.3998 	 19.924 	 
H 	 -49.35 	 10.9231 	 19.5313 	 
S 	 -51.4857 	 12.5325 	 27.7823 	 
C 	 -52.1243 	 11.1667 	 28.6547 	 
C 	 -51.5459 	 9.97782 	 28.301 	 
C 	 -50.507 	 10.0931 	 27.3988 	 
C 	 -50.2876 	 11.4266 	 27.0259 	 
H 	 -51.9584 	 9.03071 	 28.6737 	 
C 	 -49.7504 	 8.90504 	 26.9628 	 
H 	 -48.8602 	 9.22266 	 26.5338 	 
H 	 -50.2877 	 8.42003 	 26.0934 	 
C 	 -49.4603 	 7.88405 	 27.9819 	 
H 	 -50.352 	 7.34365 	 28.3137 	 
H 	 -49.0924 	 8.40102 	 28.892 	 
C 	 -48.4518 	 6.77037 	 27.4936 	 
H 	 -48.4137 	 5.94268 	 28.2335 	 
H 	 -47.4268 	 7.23609 	 27.4673 	 
H 	 -48.6728 	 6.31686 	 26.5232 	 
H 	 -46.557 	 13.7402 	 24.6175 	 
H 	 -52.8867 	 11.1651 	 29.4075 	 
