34

S 	 -72.7802 	 18.2035 	 -76.9105 	 
C 	 -72.3285 	 19.6289 	 -75.8804 	 
C 	 -70.9691 	 19.7937 	 -75.759 	 
C 	 -70.3214 	 18.7689 	 -76.4698 	 
C 	 -71.1377 	 17.8608 	 -77.1174 	 
H 	 -69.2037 	 18.5921 	 -76.5319 	 
C 	 -70.329 	 20.9614 	 -74.9877 	 
H 	 -69.4222 	 20.5703 	 -74.6339 	 
H 	 -71.0445 	 21.1463 	 -74.1763 	 
C 	 -69.8633 	 22.1955 	 -75.8193 	 
H 	 -69.3915 	 21.9252 	 -76.7686 	 
H 	 -70.7762 	 22.7099 	 -76.1459 	 
C 	 -68.9764 	 23.1864 	 -75.0417 	 
H 	 -69.5427 	 23.7678 	 -74.3062 	 
H 	 -68.1245 	 22.6921 	 -74.5948 	 
H 	 -68.5262 	 23.9595 	 -75.646 	 
S 	 -70.4933 	 15.1774 	 -77.2096 	 
C 	 -69.7223 	 14.5492 	 -78.6176 	 
C 	 -69.8012 	 15.4744 	 -79.6399 	 
C 	 -70.2193 	 16.8011 	 -79.2786 	 
C 	 -70.6331 	 16.7804 	 -77.9449 	 
H 	 -69.6513 	 14.9732 	 -80.6011 	 
C 	 -70.5974 	 17.8439 	 -80.2722 	 
H 	 -71.2656 	 18.6256 	 -79.8748 	 
H 	 -71.2621 	 17.3523 	 -81.0044 	 
C 	 -69.4768 	 18.4691 	 -81.2021 	 
H 	 -69.9676 	 19.0321 	 -81.9911 	 
H 	 -68.782 	 17.6917 	 -81.6513 	 
C 	 -68.6383 	 19.5816 	 -80.468 	 
H 	 -68.0613 	 19.2511 	 -79.5906 	 
H 	 -69.2954 	 20.3882 	 -80.0656 	 
H 	 -67.7661 	 19.854 	 -81.0931 	 
H 	 -73.0782 	 20.3242 	 -75.4719 	 
H 	 -69.5429 	 13.5466 	 -78.7943 	 
