34

S 	 20.2003 	 -23.7612 	 -121.677 	 
C 	 21.9055 	 -24.2205 	 -121.64 	 
C 	 22.4859 	 -24.0401 	 -120.355 	 
C 	 21.5737 	 -23.263 	 -119.581 	 
C 	 20.3135 	 -23.0114 	 -120.131 	 
H 	 21.7215 	 -22.8571 	 -118.604 	 
C 	 23.8088 	 -24.6001 	 -119.871 	 
H 	 24.1834 	 -23.8794 	 -119.144 	 
H 	 24.5915 	 -24.6415 	 -120.641 	 
C 	 23.6342 	 -25.9788 	 -119.243 	 
H 	 22.824 	 -25.9417 	 -118.487 	 
H 	 23.3847 	 -26.7033 	 -120.011 	 
C 	 24.9073 	 -26.4956 	 -118.538 	 
H 	 24.808 	 -27.5597 	 -118.403 	 
H 	 25.8612 	 -26.3567 	 -119.073 	 
H 	 25.0933 	 -25.967 	 -117.561 	 
S 	 17.8475 	 -23.3506 	 -118.848 	 
C 	 17.0637 	 -21.9825 	 -118.273 	 
C 	 17.7743 	 -20.8591 	 -118.464 	 
C 	 19.0739 	 -21.0994 	 -118.974 	 
C 	 19.1924 	 -22.3961 	 -119.477 	 
H 	 17.3562 	 -19.9439 	 -118.104 	 
C 	 20.0973 	 -19.9534 	 -119.083 	 
H 	 20.7952 	 -20.0356 	 -119.915 	 
H 	 20.7066 	 -20.1582 	 -118.213 	 
C 	 19.468 	 -18.4979 	 -119.151 	 
H 	 19.1829 	 -18.3751 	 -118.155 	 
H 	 18.4895 	 -18.4412 	 -119.844 	 
C 	 20.5468 	 -17.3847 	 -119.532 	 
H 	 20.8782 	 -17.537 	 -120.587 	 
H 	 21.4591 	 -17.3517 	 -118.861 	 
H 	 20.1305 	 -16.4219 	 -119.49 	 
H 	 22.3149 	 -24.8019 	 -122.471 	 
H 	 16.0493 	 -21.9877 	 -117.861 	 
