34

S 	 -91.3703 	 -23.8677 	 -60.1684 	 
C 	 -91.0793 	 -23.2174 	 -58.5814 	 
C 	 -90.6568 	 -24.2286 	 -57.7613 	 
C 	 -90.5264 	 -25.5248 	 -58.3811 	 
C 	 -91.0703 	 -25.5183 	 -59.678 	 
H 	 -90.2634 	 -26.4434 	 -57.9559 	 
C 	 -90.3023 	 -23.9951 	 -56.3235 	 
H 	 -89.3349 	 -23.5985 	 -56.2551 	 
H 	 -90.1322 	 -24.9889 	 -55.8586 	 
C 	 -91.1554 	 -23.0681 	 -55.464 	 
H 	 -90.633 	 -22.8781 	 -54.5412 	 
H 	 -91.2127 	 -22.1391 	 -56.0173 	 
C 	 -92.589 	 -23.7192 	 -55.2756 	 
H 	 -93.2138 	 -23.6101 	 -56.1155 	 
H 	 -92.446 	 -24.7675 	 -55.0759 	 
H 	 -93.1781 	 -23.3233 	 -54.4242 	 
S 	 -90.973 	 -26.6331 	 -62.2001 	 
C 	 -91.4869 	 -28.2711 	 -62.3759 	 
C 	 -92.028 	 -28.8394 	 -61.2351 	 
C 	 -91.9515 	 -27.8997 	 -60.1452 	 
C 	 -91.3412 	 -26.6929 	 -60.5157 	 
H 	 -92.4649 	 -29.8549 	 -61.2852 	 
C 	 -92.5603 	 -28.1869 	 -58.7906 	 
H 	 -93.2604 	 -27.5026 	 -58.3429 	 
H 	 -91.7464 	 -28.045 	 -58.1062 	 
C 	 -93.0215 	 -29.6276 	 -58.5089 	 
H 	 -93.1295 	 -29.8346 	 -57.4106 	 
H 	 -92.5144 	 -30.4757 	 -58.9958 	 
C 	 -94.4893 	 -29.7168 	 -58.9303 	 
H 	 -94.5585 	 -29.4895 	 -60.0277 	 
H 	 -95.0897 	 -29.0655 	 -58.3686 	 
H 	 -94.8669 	 -30.7483 	 -58.6879 	 
H 	 -91.0108 	 -22.2181 	 -58.2614 	 
H 	 -91.3322 	 -28.8687 	 -63.2677 	 
