34

S 	 -93.4143 	 12.7319 	 -116.8 	 
C 	 -92.1849 	 13.7307 	 -116.077 	 
C 	 -91.0221 	 13.0486 	 -115.934 	 
C 	 -91.1604 	 11.6778 	 -116.435 	 
C 	 -92.3167 	 11.386 	 -117.102 	 
H 	 -90.4187 	 10.9044 	 -116.569 	 
C 	 -89.765 	 13.6165 	 -115.307 	 
H 	 -89.9354 	 13.5886 	 -114.219 	 
H 	 -89.6827 	 14.6686 	 -115.371 	 
C 	 -88.332 	 13.0577 	 -115.658 	 
H 	 -87.6324 	 13.3876 	 -114.85 	 
H 	 -88.4698 	 11.996 	 -115.539 	 
C 	 -87.8626 	 13.3377 	 -117.084 	 
H 	 -87.9179 	 14.3745 	 -117.362 	 
H 	 -86.8617 	 12.9365 	 -117.24 	 
H 	 -88.4851 	 12.839 	 -117.852 	 
S 	 -92.6348 	 8.66049 	 -116.591 	 
C 	 -93.2629 	 7.61367 	 -117.83 	 
C 	 -93.7282 	 8.38454 	 -118.815 	 
C 	 -93.3949 	 9.75523 	 -118.817 	 
C 	 -92.7433 	 10.0995 	 -117.666 	 
H 	 -94.2546 	 7.93575 	 -119.647 	 
C 	 -93.8462 	 10.7337 	 -119.92 	 
H 	 -93.8799 	 11.7435 	 -119.503 	 
H 	 -94.8528 	 10.4853 	 -120.088 	 
C 	 -92.8648 	 10.8251 	 -121.135 	 
H 	 -92.8209 	 9.83539 	 -121.719 	 
H 	 -91.8356 	 11.0039 	 -120.719 	 
C 	 -93.1621 	 12.0092 	 -122.109 	 
H 	 -92.4055 	 12.1024 	 -122.951 	 
H 	 -93.0964 	 12.9447 	 -121.522 	 
H 	 -94.1822 	 11.878 	 -122.439 	 
H 	 -92.4905 	 14.6922 	 -115.67 	 
H 	 -93.4141 	 6.49961 	 -117.671 	 
