34

S 	 -99.2981 	 8.90747 	 1.57809 	 
C 	 -99.59 	 9.26759 	 -0.0633886 	 
C 	 -98.3733 	 9.32951 	 -0.783787 	 
C 	 -97.2361 	 9.22397 	 0.0494728 	 
C 	 -97.5625 	 9.17367 	 1.38891 	 
H 	 -96.2394 	 9.30487 	 -0.319234 	 
C 	 -98.1596 	 9.61538 	 -2.25312 	 
H 	 -98.9452 	 8.93367 	 -2.68356 	 
H 	 -97.2047 	 9.22623 	 -2.60902 	 
C 	 -98.3364 	 11.0757 	 -2.69509 	 
H 	 -99.3391 	 11.4561 	 -2.42484 	 
H 	 -97.4977 	 11.6159 	 -2.16325 	 
C 	 -98.2755 	 11.2495 	 -4.22587 	 
H 	 -97.4115 	 10.8043 	 -4.6617 	 
H 	 -99.0059 	 10.6775 	 -4.74191 	 
H 	 -98.3626 	 12.3094 	 -4.5551 	 
S 	 -97.1314 	 8.24516 	 3.89024 	 
C 	 -95.6341 	 8.35667 	 4.66486 	 
C 	 -94.7249 	 9.0043 	 3.86415 	 
C 	 -95.317 	 9.50174 	 2.68734 	 
C 	 -96.584 	 9.05838 	 2.50873 	 
H 	 -93.719 	 9.08204 	 4.25004 	 
C 	 -94.5219 	 10.4742 	 1.80928 	 
H 	 -95.2217 	 10.9015 	 1.02597 	 
H 	 -93.6073 	 9.99153 	 1.43098 	 
C 	 -94.0054 	 11.7368 	 2.57812 	 
H 	 -93.238 	 12.2313 	 1.98878 	 
H 	 -93.527 	 11.4549 	 3.49885 	 
C 	 -95.1027 	 12.7834 	 2.90239 	 
H 	 -94.8019 	 13.7285 	 3.44681 	 
H 	 -95.9672 	 12.387 	 3.43874 	 
H 	 -95.4028 	 13.1709 	 1.92207 	 
H 	 -100.494 	 9.33353 	 -0.525267 	 
H 	 -95.3659 	 8.1138 	 5.66351 	 
