34

S 	 -53.2298 	 -58.3228 	 -80.6714 	 
C 	 -53.3625 	 -56.792 	 -79.8503 	 
C 	 -54.6329 	 -56.2716 	 -79.9662 	 
C 	 -55.5601 	 -57.1299 	 -80.7119 	 
C 	 -54.9089 	 -58.2166 	 -81.2475 	 
H 	 -56.62 	 -56.9192 	 -80.7919 	 
C 	 -55.102 	 -55.0459 	 -79.2263 	 
H 	 -56.1155 	 -55.292 	 -79.2781 	 
H 	 -54.8177 	 -54.162 	 -79.7766 	 
C 	 -54.6248 	 -54.9633 	 -77.7288 	 
H 	 -54.5982 	 -56.0163 	 -77.318 	 
H 	 -53.6058 	 -54.59 	 -77.6373 	 
C 	 -55.575 	 -54.1076 	 -76.8333 	 
H 	 -55.681 	 -53.0995 	 -77.2343 	 
H 	 -56.5572 	 -54.5033 	 -76.7488 	 
H 	 -55.2374 	 -53.9812 	 -75.7552 	 
S 	 -55.0324 	 -61.0684 	 -81.4514 	 
C 	 -56.3121 	 -61.7874 	 -82.4016 	 
C 	 -57.12 	 -60.8 	 -82.9714 	 
C 	 -56.6751 	 -59.4245 	 -82.7482 	 
C 	 -55.5466 	 -59.3986 	 -81.9255 	 
H 	 -57.8779 	 -61.1129 	 -83.6199 	 
C 	 -57.3437 	 -58.175 	 -83.4241 	 
H 	 -57.3886 	 -57.2734 	 -82.7433 	 
H 	 -58.3454 	 -58.5189 	 -83.6336 	 
C 	 -56.7064 	 -57.7741 	 -84.731 	 
H 	 -57.4038 	 -57.1218 	 -85.2753 	 
H 	 -56.5748 	 -58.7021 	 -85.2744 	 
C 	 -55.324 	 -57.1315 	 -84.5691 	 
H 	 -55.3696 	 -56.1395 	 -84.0249 	 
H 	 -54.822 	 -57.0855 	 -85.5597 	 
H 	 -54.6806 	 -57.7936 	 -83.9554 	 
H 	 -52.4691 	 -56.2827 	 -79.6078 	 
H 	 -56.4092 	 -62.808 	 -82.604 	 
