34

S 	 -110.143 	 67.6143 	 -10.3397 	 
C 	 -109.762 	 68.8371 	 -11.5117 	 
C 	 -108.724 	 69.665 	 -11.0512 	 
C 	 -108.072 	 69.0424 	 -9.8857 	 
C 	 -108.713 	 67.8792 	 -9.43035 	 
H 	 -107.218 	 69.4957 	 -9.46243 	 
C 	 -108.234 	 70.9177 	 -11.759 	 
H 	 -109.076 	 71.298 	 -12.399 	 
H 	 -107.512 	 70.5514 	 -12.4755 	 
C 	 -107.796 	 72.1475 	 -10.8614 	 
H 	 -108.521 	 72.539 	 -10.258 	 
H 	 -106.946 	 71.7106 	 -10.3077 	 
C 	 -107.46 	 73.3189 	 -11.7633 	 
H 	 -108.252 	 73.6587 	 -12.3696 	 
H 	 -107.069 	 74.1725 	 -11.2787 	 
H 	 -106.756 	 72.9908 	 -12.5383 	 
S 	 -107.529 	 67.9525 	 -6.90319 	 
C 	 -107.171 	 66.4479 	 -5.9881 	 
C 	 -107.78 	 65.3495 	 -6.64667 	 
C 	 -108.329 	 65.7035 	 -7.96274 	 
C 	 -108.234 	 67.053 	 -8.26958 	 
H 	 -107.801 	 64.4025 	 -6.10889 	 
C 	 -109.03 	 64.6569 	 -8.81992 	 
H 	 -108.288 	 64.2849 	 -9.54383 	 
H 	 -109.78 	 65.0592 	 -9.53437 	 
C 	 -109.768 	 63.5071 	 -8.15906 	 
H 	 -109.036 	 63.0261 	 -7.49752 	 
H 	 -110.106 	 62.7711 	 -8.89607 	 
C 	 -110.851 	 64.0089 	 -7.30439 	 
H 	 -111.327 	 63.2403 	 -6.80008 	 
H 	 -111.467 	 64.6677 	 -7.90796 	 
H 	 -110.505 	 64.7256 	 -6.54718 	 
H 	 -110.042 	 68.9798 	 -12.4995 	 
H 	 -106.777 	 66.383 	 -4.99637 	 
