34

S 	 -53.5904 	 -2.01654 	 -25.1653 	 
C 	 -53.9438 	 -0.862991 	 -23.9497 	 
C 	 -53.2249 	 0.293394 	 -24.1215 	 
C 	 -52.432 	 0.275944 	 -25.2737 	 
C 	 -52.4799 	 -0.936276 	 -25.9869 	 
H 	 -51.6396 	 0.9752 	 -25.6109 	 
C 	 -53.1653 	 1.46089 	 -23.1702 	 
H 	 -52.1557 	 1.57551 	 -22.7504 	 
H 	 -53.8634 	 1.22909 	 -22.3509 	 
C 	 -53.4478 	 2.8999 	 -23.7496 	 
H 	 -53.1276 	 2.88578 	 -24.8006 	 
H 	 -54.5292 	 3.09265 	 -23.7342 	 
C 	 -52.8441 	 4.09972 	 -23.002 	 
H 	 -53.2044 	 5.15452 	 -23.3022 	 
H 	 -53.2017 	 4.01841 	 -21.9984 	 
H 	 -51.766 	 4.11338 	 -22.9187 	 
S 	 -50.227 	 -2.16209 	 -26.8454 	 
C 	 -49.7829 	 -2.0735 	 -28.5488 	 
C 	 -50.7512 	 -1.39536 	 -29.2691 	 
C 	 -51.8555 	 -0.983479 	 -28.4776 	 
C 	 -51.7001 	 -1.28155 	 -27.115 	 
H 	 -50.6233 	 -1.24554 	 -30.3651 	 
C 	 -52.9815 	 -0.152993 	 -29.0421 	 
H 	 -52.565 	 0.420117 	 -29.8886 	 
H 	 -53.1962 	 0.6168 	 -28.3158 	 
C 	 -54.1618 	 -0.934774 	 -29.5215 	 
H 	 -54.9253 	 -0.340354 	 -29.9711 	 
H 	 -54.5965 	 -1.52807 	 -28.7493 	 
C 	 -53.8658 	 -2.05698 	 -30.4529 	 
H 	 -54.7401 	 -2.70337 	 -30.6159 	 
H 	 -53.0703 	 -2.67911 	 -30.0621 	 
H 	 -53.5819 	 -1.68409 	 -31.4148 	 
H 	 -54.689 	 -0.978832 	 -23.144 	 
H 	 -48.7821 	 -2.48888 	 -28.8447 	 
