34

S 	 -41.4593 	 -49.4394 	 -70.0407 	 
C 	 -40.0453 	 -49.4069 	 -69.0363 	 
C 	 -39.2432 	 -50.4545 	 -69.3161 	 
C 	 -39.8043 	 -51.3382 	 -70.3035 	 
C 	 -41.0425 	 -50.9775 	 -70.788 	 
H 	 -39.2694 	 -52.2046 	 -70.6642 	 
C 	 -37.9297 	 -50.5949 	 -68.705 	 
H 	 -38.117 	 -51.3785 	 -67.9389 	 
H 	 -37.5585 	 -49.7205 	 -68.1539 	 
C 	 -36.7057 	 -50.973 	 -69.5898 	 
H 	 -37.0106 	 -51.6312 	 -70.3852 	 
H 	 -36.4556 	 -50.0015 	 -70.0233 	 
C 	 -35.5018 	 -51.5559 	 -68.8801 	 
H 	 -35.7945 	 -52.5086 	 -68.4213 	 
H 	 -34.6519 	 -51.786 	 -69.4481 	 
H 	 -35.2067 	 -50.9052 	 -68.0679 	 
S 	 -42.7934 	 -50.5483 	 -72.9393 	 
C 	 -43.795 	 -51.8678 	 -73.4148 	 
C 	 -43.343 	 -53.0363 	 -72.9085 	 
C 	 -42.3394 	 -52.9061 	 -71.8808 	 
C 	 -41.9521 	 -51.6511 	 -71.7167 	 
H 	 -43.6745 	 -54.0026 	 -73.286 	 
C 	 -41.6576 	 -54.0945 	 -71.1963 	 
H 	 -40.5939 	 -53.9532 	 -71.3591 	 
H 	 -41.9615 	 -55.0008 	 -71.7062 	 
C 	 -41.9842 	 -54.3463 	 -69.7209 	 
H 	 -43.068 	 -54.346 	 -69.6693 	 
H 	 -41.7502 	 -53.4683 	 -69.146 	 
C 	 -41.3376 	 -55.5171 	 -69.0911 	 
H 	 -41.6935 	 -55.6556 	 -68.0931 	 
H 	 -40.2155 	 -55.444 	 -69.1464 	 
H 	 -41.3836 	 -56.4747 	 -69.5792 	 
H 	 -39.7324 	 -48.6471 	 -68.2972 	 
H 	 -44.3753 	 -51.824 	 -74.3252 	 
