34

S 	 -105.773 	 54.75 	 -13.3242 	 
C 	 -105.432 	 56.331 	 -13.9626 	 
C 	 -104.128 	 56.5034 	 -14.2844 	 
C 	 -103.332 	 55.4156 	 -13.6654 	 
C 	 -104.095 	 54.4093 	 -13.0873 	 
H 	 -102.21 	 55.3774 	 -13.6378 	 
C 	 -103.454 	 57.5742 	 -15.1997 	 
H 	 -102.496 	 57.8887 	 -14.8219 	 
H 	 -103.99 	 58.4852 	 -15.1024 	 
C 	 -103.327 	 57.1919 	 -16.6429 	 
H 	 -102.905 	 56.223 	 -16.6128 	 
H 	 -104.304 	 57.004 	 -16.9647 	 
C 	 -102.461 	 58.0436 	 -17.5015 	 
H 	 -102.378 	 57.6023 	 -18.4922 	 
H 	 -102.974 	 58.9442 	 -17.6591 	 
H 	 -101.457 	 58.2115 	 -17.0463 	 
S 	 -104.257 	 51.6971 	 -12.9446 	 
C 	 -103.083 	 50.8058 	 -12.0628 	 
C 	 -102.285 	 51.6174 	 -11.3285 	 
C 	 -102.562 	 53.0055 	 -11.4854 	 
C 	 -103.609 	 53.2419 	 -12.4227 	 
H 	 -101.765 	 51.1402 	 -10.5678 	 
C 	 -101.65 	 54.0238 	 -10.872 	 
H 	 -101.713 	 55.0068 	 -11.2607 	 
H 	 -100.664 	 53.7918 	 -11.0761 	 
C 	 -101.833 	 54.0174 	 -9.38037 	 
H 	 -101.192 	 54.7411 	 -8.90423 	 
H 	 -101.449 	 53.0569 	 -9.00191 	 
C 	 -103.221 	 54.2822 	 -8.88865 	 
H 	 -103.212 	 54.2166 	 -7.80619 	 
H 	 -103.878 	 53.4903 	 -9.22442 	 
H 	 -103.682 	 55.2292 	 -9.2087 	 
H 	 -106.261 	 56.9639 	 -14.3643 	 
H 	 -102.992 	 49.7623 	 -12.1072 	 
