34

S 	 -55.1643 	 7.74125 	 -31.6778 	 
C 	 -56.1435 	 6.40434 	 -31.0819 	 
C 	 -55.7927 	 5.3315 	 -31.8791 	 
C 	 -54.7396 	 5.54825 	 -32.8392 	 
C 	 -54.2475 	 6.82331 	 -32.8302 	 
H 	 -54.2131 	 4.79562 	 -33.4945 	 
C 	 -56.5502 	 4.03909 	 -31.7743 	 
H 	 -57.1029 	 4.22869 	 -30.9054 	 
H 	 -55.9339 	 3.1667 	 -31.6942 	 
C 	 -57.5723 	 3.89204 	 -32.8875 	 
H 	 -58.3299 	 4.66087 	 -32.7872 	 
H 	 -57.1555 	 3.88436 	 -33.8612 	 
C 	 -58.36 	 2.61998 	 -32.8277 	 
H 	 -58.7718 	 2.42662 	 -31.836 	 
H 	 -59.1732 	 2.57567 	 -33.5472 	 
H 	 -57.8496 	 1.70534 	 -33.0543 	 
S 	 -53.2899 	 8.71691 	 -34.6178 	 
C 	 -51.5306 	 8.7986 	 -34.8843 	 
C 	 -50.9232 	 7.74409 	 -34.3187 	 
C 	 -51.7912 	 6.89136 	 -33.5882 	 
C 	 -53.1125 	 7.33468 	 -33.5652 	 
H 	 -49.8469 	 7.61321 	 -34.3495 	 
C 	 -51.1881 	 5.72282 	 -32.814 	 
H 	 -50.1176 	 5.60715 	 -33.0599 	 
H 	 -51.5946 	 4.86613 	 -33.2567 	 
C 	 -51.383 	 5.76846 	 -31.2797 	 
H 	 -52.3547 	 5.58401 	 -30.8578 	 
H 	 -51.1345 	 6.75328 	 -30.8603 	 
C 	 -50.3959 	 4.74764 	 -30.6683 	 
H 	 -49.3389 	 4.92799 	 -30.7866 	 
H 	 -50.613 	 3.71917 	 -31.0412 	 
H 	 -50.4914 	 4.64153 	 -29.5964 	 
H 	 -56.9261 	 6.37064 	 -30.3541 	 
H 	 -51.1057 	 9.64277 	 -35.401 	 
