34

S 	 -72.4318 	 4.48237 	 -112.529 	 
C 	 -73.0156 	 5.10986 	 -110.952 	 
C 	 -73.0823 	 6.49673 	 -110.986 	 
C 	 -72.1986 	 7.01795 	 -112.021 	 
C 	 -72.089 	 6.08725 	 -113.09 	 
H 	 -71.9212 	 8.03449 	 -112.112 	 
C 	 -73.4884 	 7.43293 	 -109.894 	 
H 	 -73.3131 	 8.508 	 -110.289 	 
H 	 -72.6683 	 7.27827 	 -109.147 	 
C 	 -74.8888 	 7.25719 	 -109.251 	 
H 	 -75.5545 	 7.61935 	 -109.986 	 
H 	 -75.0656 	 6.22167 	 -108.983 	 
C 	 -74.9596 	 8.05303 	 -107.953 	 
H 	 -75.8393 	 7.7369 	 -107.358 	 
H 	 -74.057 	 8.0787 	 -107.316 	 
H 	 -75.1139 	 9.03659 	 -108.282 	 
S 	 -72.0473 	 7.27022 	 -115.652 	 
C 	 -70.6761 	 7.07512 	 -116.683 	 
C 	 -69.7017 	 6.39797 	 -116.049 	 
C 	 -70.0763 	 5.94558 	 -114.722 	 
C 	 -71.3525 	 6.34052 	 -114.34 	 
H 	 -68.718 	 6.29537 	 -116.495 	 
C 	 -69.0798 	 5.10952 	 -113.903 	 
H 	 -69.2727 	 5.315 	 -112.801 	 
H 	 -68.0098 	 5.3733 	 -113.911 	 
C 	 -69.2054 	 3.60292 	 -114.191 	 
H 	 -70.1699 	 3.30752 	 -113.879 	 
H 	 -68.6134 	 3.05119 	 -113.476 	 
C 	 -68.8554 	 3.18131 	 -115.577 	 
H 	 -67.8424 	 3.52571 	 -115.828 	 
H 	 -69.4199 	 3.81023 	 -116.197 	 
H 	 -69.1005 	 2.15557 	 -115.65 	 
H 	 -73.1688 	 4.44834 	 -110.09 	 
H 	 -70.4251 	 7.64246 	 -117.535 	 
