34

S 	 -45.8093 	 17.5404 	 29.7438 	 
C 	 -45.7208 	 17.2312 	 28.0024 	 
C 	 -46.9029 	 17.5899 	 27.3465 	 
C 	 -47.7363 	 18.2954 	 28.2159 	 
C 	 -47.3207 	 18.4277 	 29.525 	 
H 	 -48.7273 	 18.6592 	 27.9117 	 
C 	 -47.304 	 17.0463 	 25.9804 	 
H 	 -48.3363 	 16.7708 	 26.0313 	 
H 	 -46.6992 	 16.0948 	 25.9977 	 
C 	 -46.9556 	 17.8444 	 24.7646 	 
H 	 -47.3255 	 18.8783 	 24.8353 	 
H 	 -45.8638 	 17.8223 	 24.682 	 
C 	 -47.5909 	 17.1279 	 23.5352 	 
H 	 -48.7009 	 17.0225 	 23.4231 	 
H 	 -47.2199 	 17.6966 	 22.7572 	 
H 	 -47.2863 	 16.1274 	 23.3758 	 
S 	 -49.0833 	 18.6467 	 31.5833 	 
C 	 -49.1048 	 20.0471 	 32.5689 	 
C 	 -48.1537 	 20.9601 	 32.1032 	 
C 	 -47.3273 	 20.5739 	 31.0102 	 
C 	 -47.7679 	 19.3435 	 30.5845 	 
H 	 -48.1255 	 21.9455 	 32.6021 	 
C 	 -46.1065 	 21.3381 	 30.5789 	 
H 	 -46.2964 	 22.3565 	 30.7371 	 
H 	 -46.0997 	 21.3546 	 29.4835 	 
C 	 -44.7764 	 20.9106 	 31.1292 	 
H 	 -44.0577 	 21.6646 	 30.948 	 
H 	 -44.4585 	 20.0705 	 30.5763 	 
C 	 -44.8241 	 20.6992 	 32.6788 	 
H 	 -45.5975 	 19.9823 	 32.9541 	 
H 	 -45.0782 	 21.6884 	 33.1585 	 
H 	 -43.9036 	 20.3834 	 33.1282 	 
H 	 -44.9169 	 16.6205 	 27.649 	 
H 	 -49.8575 	 20.2543 	 33.2914 	 
