34

S 	 -63.2354 	 9.79791 	 -16.5187 	 
C 	 -64.5366 	 8.61329 	 -16.6008 	 
C 	 -64.2409 	 7.56983 	 -17.4638 	 
C 	 -63.0981 	 7.81563 	 -18.2626 	 
C 	 -62.5222 	 8.96394 	 -17.8671 	 
H 	 -62.6768 	 7.23744 	 -19.1563 	 
C 	 -65.0412 	 6.30882 	 -17.5041 	 
H 	 -66.0488 	 6.57806 	 -17.2314 	 
H 	 -64.6268 	 5.51901 	 -16.927 	 
C 	 -65.2199 	 5.69534 	 -18.8851 	 
H 	 -65.6054 	 6.48736 	 -19.6443 	 
H 	 -64.2441 	 5.30526 	 -19.2463 	 
C 	 -66.3483 	 4.69002 	 -19.018 	 
H 	 -66.3159 	 3.86936 	 -18.3 	 
H 	 -67.2845 	 5.25655 	 -18.9113 	 
H 	 -66.4169 	 4.16205 	 -19.9539 	 
S 	 -61.7423 	 10.4577 	 -20.108 	 
C 	 -60.0125 	 10.7171 	 -20.265 	 
C 	 -59.2731 	 10.3805 	 -19.18 	 
C 	 -60.0425 	 9.6383 	 -18.211 	 
C 	 -61.4042 	 9.59555 	 -18.5762 	 
H 	 -58.2195 	 10.6405 	 -19.1285 	 
C 	 -59.4737 	 8.92152 	 -16.9997 	 
H 	 -60.2234 	 8.55741 	 -16.3627 	 
H 	 -58.6324 	 9.5192 	 -16.5083 	 
C 	 -58.8409 	 7.58964 	 -17.5963 	 
H 	 -58.3304 	 7.02211 	 -16.8485 	 
H 	 -57.9596 	 7.8876 	 -18.2555 	 
C 	 -59.7971 	 6.67011 	 -18.3254 	 
H 	 -59.3363 	 5.80506 	 -18.7076 	 
H 	 -60.3233 	 7.09738 	 -19.1914 	 
H 	 -60.5724 	 6.3513 	 -17.6987 	 
H 	 -65.3561 	 8.42137 	 -15.9701 	 
H 	 -59.5521 	 11.3341 	 -20.9874 	 
