34

S 	 33.276 	 -27.8812 	 -112.006 	 
C 	 32.3334 	 -28.5732 	 -110.694 	 
C 	 33.0572 	 -29.5862 	 -110.13 	 
C 	 34.2207 	 -30.0425 	 -110.776 	 
C 	 34.5565 	 -29.1638 	 -111.8 	 
H 	 34.8344 	 -30.8801 	 -110.432 	 
C 	 32.6632 	 -30.1643 	 -108.809 	 
H 	 32.6465 	 -31.2162 	 -109.055 	 
H 	 31.7586 	 -29.6892 	 -108.61 	 
C 	 33.6902 	 -29.9319 	 -107.741 	 
H 	 34.7355 	 -30.1892 	 -107.973 	 
H 	 33.7165 	 -28.916 	 -107.503 	 
C 	 33.2727 	 -30.6853 	 -106.467 	 
H 	 32.3464 	 -30.3104 	 -106.134 	 
H 	 33.3233 	 -31.8075 	 -106.582 	 
H 	 33.9702 	 -30.58 	 -105.553 	 
S 	 35.4985 	 -28.7265 	 -114.363 	 
C 	 37.1024 	 -29.2863 	 -114.792 	 
C 	 37.7873 	 -29.714 	 -113.683 	 
C 	 36.9829 	 -29.7663 	 -112.471 	 
C 	 35.68 	 -29.2962 	 -112.678 	 
H 	 38.7922 	 -30.0251 	 -113.659 	 
C 	 37.6453 	 -30.2166 	 -111.137 	 
H 	 38.6793 	 -30.5668 	 -111.401 	 
H 	 37.2472 	 -31.1627 	 -110.708 	 
C 	 37.7858 	 -29.1294 	 -109.993 	 
H 	 36.8316 	 -28.8257 	 -109.524 	 
H 	 38.1847 	 -28.1632 	 -110.384 	 
C 	 38.6105 	 -29.6417 	 -108.735 	 
H 	 39.5319 	 -30.0609 	 -109.076 	 
H 	 38.0544 	 -30.4634 	 -108.266 	 
H 	 38.8454 	 -28.926 	 -107.926 	 
H 	 31.4078 	 -28.1322 	 -110.324 	 
H 	 37.4607 	 -29.4572 	 -115.826 	 
