34

S 	 -48.3018 	 14.0272 	 34.4306 	 
C 	 -47.0007 	 13.4862 	 33.4569 	 
C 	 -47.4396 	 12.9002 	 32.2744 	 
C 	 -48.8508 	 13.1396 	 32.073 	 
C 	 -49.3714 	 13.8039 	 33.1637 	 
H 	 -49.5371 	 12.8811 	 31.2758 	 
C 	 -46.4593 	 12.262 	 31.2839 	 
H 	 -46.7005 	 11.1666 	 31.0674 	 
H 	 -45.4946 	 12.3132 	 31.8183 	 
C 	 -46.1873 	 13.0688 	 29.981 	 
H 	 -46.0358 	 14.0458 	 30.2826 	 
H 	 -45.2532 	 12.8361 	 29.4323 	 
C 	 -47.2634 	 13.0339 	 28.8776 	 
H 	 -46.9324 	 13.4746 	 27.9669 	 
H 	 -47.5184 	 12.007 	 28.7246 	 
H 	 -48.1626 	 13.535 	 29.2184 	 
S 	 -51.8128 	 12.6971 	 33.1967 	 
C 	 -53.1834 	 13.6533 	 33.6656 	 
C 	 -52.8203 	 14.9777 	 33.8156 	 
C 	 -51.4407 	 15.291 	 33.6036 	 
C 	 -50.8023 	 14.0975 	 33.2414 	 
H 	 -53.6986 	 15.6323 	 34.0268 	 
C 	 -50.9312 	 16.7127 	 33.4828 	 
H 	 -49.864 	 16.7216 	 33.4673 	 
H 	 -51.2101 	 17.248 	 34.3604 	 
C 	 -51.2249 	 17.3508 	 32.1231 	 
H 	 -50.4756 	 18.1362 	 32.0728 	 
H 	 -52.2398 	 17.7506 	 32.2766 	 
C 	 -51.181 	 16.3474 	 30.9605 	 
H 	 -50.2415 	 15.7963 	 30.9118 	 
H 	 -51.4951 	 16.7996 	 29.9237 	 
H 	 -51.9302 	 15.5723 	 31.107 	 
H 	 -45.9372 	 13.6126 	 33.7104 	 
H 	 -54.1878 	 13.3953 	 33.7539 	 
