34

S 	 -115.388 	 21.9842 	 -115.333 	 
C 	 -117.075 	 21.7932 	 -115.733 	 
C 	 -117.823 	 22.8988 	 -115.423 	 
C 	 -117.038 	 23.8724 	 -114.706 	 
C 	 -115.674 	 23.5234 	 -114.557 	 
H 	 -117.315 	 24.8395 	 -114.293 	 
C 	 -119.344 	 22.9912 	 -115.633 	 
H 	 -119.641 	 22.7027 	 -116.656 	 
H 	 -119.649 	 24.0092 	 -115.685 	 
C 	 -120.193 	 22.2366 	 -114.559 	 
H 	 -119.92 	 22.3591 	 -113.48 	 
H 	 -121.205 	 22.5476 	 -114.782 	 
C 	 -120.109 	 20.7368 	 -114.699 	 
H 	 -120.482 	 20.3583 	 -115.624 	 
H 	 -119.084 	 20.4271 	 -114.54 	 
H 	 -120.806 	 20.2521 	 -113.964 	 
S 	 -114.279 	 25.7829 	 -114.933 	 
C 	 -113.218 	 26.4126 	 -113.664 	 
C 	 -113.404 	 25.6481 	 -112.535 	 
C 	 -114.19 	 24.5162 	 -112.695 	 
C 	 -114.667 	 24.3673 	 -113.987 	 
H 	 -112.781 	 26.0921 	 -111.726 	 
C 	 -114.563 	 23.5564 	 -111.578 	 
H 	 -115.566 	 23.2246 	 -111.824 	 
H 	 -114.796 	 24.1579 	 -110.708 	 
C 	 -113.688 	 22.4241 	 -111.135 	 
H 	 -114.385 	 21.8374 	 -110.537 	 
H 	 -112.926 	 22.6983 	 -110.461 	 
C 	 -113.064 	 21.6084 	 -112.381 	 
H 	 -113.907 	 21.4919 	 -113.044 	 
H 	 -112.545 	 20.6514 	 -112.226 	 
H 	 -112.354 	 22.2141 	 -112.919 	 
H 	 -117.473 	 21.046 	 -116.403 	 
H 	 -112.516 	 27.2972 	 -113.632 	 
