34

S 	 -107.971 	 67.9962 	 -4.30876 	 
C 	 -106.814 	 68.0349 	 -5.60025 	 
C 	 -106.394 	 66.7733 	 -5.94918 	 
C 	 -106.934 	 65.7593 	 -5.05756 	 
C 	 -107.697 	 66.3213 	 -4.04211 	 
H 	 -106.828 	 64.6662 	 -5.13276 	 
C 	 -105.361 	 66.5519 	 -7.1008 	 
H 	 -104.99 	 67.5501 	 -7.50225 	 
H 	 -106.012 	 66.2237 	 -7.98186 	 
C 	 -104.274 	 65.4956 	 -6.79958 	 
H 	 -103.882 	 65.5888 	 -5.76616 	 
H 	 -104.771 	 64.5581 	 -6.77027 	 
C 	 -103.132 	 65.4479 	 -7.83312 	 
H 	 -103.602 	 65.1495 	 -8.82055 	 
H 	 -102.569 	 66.3294 	 -7.97464 	 
H 	 -102.437 	 64.6768 	 -7.48067 	 
S 	 -107.817 	 65.3392 	 -1.47145 	 
C 	 -109.272 	 64.6333 	 -0.949416 	 
C 	 -110.166 	 64.4193 	 -1.97904 	 
C 	 -109.692 	 64.9286 	 -3.22637 	 
C 	 -108.494 	 65.5334 	 -3.11231 	 
H 	 -111.138 	 64.0678 	 -1.64541 	 
C 	 -110.56 	 64.9529 	 -4.49283 	 
H 	 -110.831 	 63.8898 	 -4.48188 	 
H 	 -109.902 	 65.0533 	 -5.2691 	 
C 	 -111.766 	 65.8619 	 -4.45029 	 
H 	 -112.451 	 65.3827 	 -3.75704 	 
H 	 -112.201 	 65.7538 	 -5.41638 	 
C 	 -111.426 	 67.3719 	 -4.02676 	 
H 	 -112.422 	 67.7726 	 -3.85804 	 
H 	 -110.966 	 67.9483 	 -4.82941 	 
H 	 -110.813 	 67.3761 	 -3.17395 	 
H 	 -106.675 	 68.9313 	 -6.17324 	 
H 	 -109.434 	 64.18 	 -0.0245838 	 
