34

S 	 13.8022 	 -16.9013 	 -120.614 	 
C 	 12.1361 	 -16.7306 	 -121.241 	 
C 	 11.2062 	 -17.3715 	 -120.437 	 
C 	 11.8293 	 -17.8117 	 -119.205 	 
C 	 13.1944 	 -17.7478 	 -119.161 	 
H 	 11.3238 	 -18.2239 	 -118.364 	 
C 	 9.68685 	 -17.4363 	 -120.73 	 
H 	 9.52584 	 -18.4993 	 -120.682 	 
H 	 9.45765 	 -17.1813 	 -121.773 	 
C 	 8.94336 	 -16.562 	 -119.653 	 
H 	 9.06123 	 -17.0238 	 -118.66 	 
H 	 9.33114 	 -15.5713 	 -119.561 	 
C 	 7.48882 	 -16.5911 	 -119.875 	 
H 	 7.11997 	 -15.8979 	 -120.669 	 
H 	 7.38744 	 -17.5982 	 -120.213 	 
H 	 6.88398 	 -16.4543 	 -118.989 	 
S 	 14.3068 	 -16.5346 	 -116.894 	 
C 	 15.0991 	 -17.618 	 -115.681 	 
C 	 15.1693 	 -18.9196 	 -116.117 	 
C 	 14.4533 	 -19.0981 	 -117.398 	 
C 	 13.9936 	 -17.9289 	 -117.976 	 
H 	 15.7206 	 -19.6834 	 -115.526 	 
C 	 14.5299 	 -20.402 	 -118.076 	 
H 	 13.8256 	 -20.5033 	 -118.861 	 
H 	 14.3847 	 -21.2093 	 -117.375 	 
C 	 15.9153 	 -20.6833 	 -118.638 	 
H 	 16.6838 	 -20.5411 	 -117.833 	 
H 	 16.1452 	 -20.1569 	 -119.512 	 
C 	 16.241 	 -22.1229 	 -118.93 	 
H 	 17.3164 	 -22.1178 	 -119.102 	 
H 	 15.8357 	 -22.4957 	 -119.806 	 
H 	 16.1535 	 -22.7979 	 -118.029 	 
H 	 11.8636 	 -16.2366 	 -122.158 	 
H 	 15.405 	 -17.31 	 -114.668 	 
