34

S 	 -97.0976 	 46.3609 	 -90.2098 	 
C 	 -96.6002 	 44.9331 	 -91.1586 	 
C 	 -97.2573 	 44.893 	 -92.4027 	 
C 	 -98.0719 	 46.0403 	 -92.6611 	 
C 	 -98.086 	 46.928 	 -91.571 	 
H 	 -98.7798 	 46.1795 	 -93.4663 	 
C 	 -97.2901 	 43.7283 	 -93.3952 	 
H 	 -96.8144 	 44.0002 	 -94.3224 	 
H 	 -98.3084 	 43.3511 	 -93.5611 	 
C 	 -96.293 	 42.5979 	 -92.9371 	 
H 	 -96.6224 	 42.2793 	 -91.931 	 
H 	 -96.5532 	 41.6601 	 -93.446 	 
C 	 -94.7793 	 42.8262 	 -93.039 	 
H 	 -94.2367 	 41.9791 	 -92.6393 	 
H 	 -94.3298 	 43.1614 	 -93.994 	 
H 	 -94.5226 	 43.5774 	 -92.2238 	 
S 	 -98.004 	 49.6534 	 -91.4272 	 
C 	 -99.4803 	 50.5423 	 -91.6068 	 
C 	 -100.587 	 49.7741 	 -91.8136 	 
C 	 -100.239 	 48.3754 	 -91.8954 	 
C 	 -98.8712 	 48.136 	 -91.6207 	 
H 	 -101.588 	 50.2156 	 -91.9977 	 
C 	 -101.283 	 47.3365 	 -91.946 	 
H 	 -101.145 	 46.6765 	 -92.8854 	 
H 	 -102.298 	 47.7397 	 -92.0205 	 
C 	 -101.392 	 46.4004 	 -90.7467 	 
H 	 -101.511 	 46.8356 	 -89.6739 	 
H 	 -100.506 	 45.7744 	 -90.7004 	 
C 	 -102.558 	 45.3827 	 -90.8627 	 
H 	 -103.517 	 45.8423 	 -90.491 	 
H 	 -102.279 	 44.5194 	 -90.2607 	 
H 	 -102.778 	 45.0191 	 -91.8688 	 
H 	 -95.7934 	 44.2885 	 -90.9024 	 
H 	 -99.4393 	 51.6316 	 -91.4253 	 
