34

S 	 -116.803 	 53.45 	 -37.1651 	 
C 	 -116.277 	 52.3003 	 -38.4134 	 
C 	 -116.357 	 52.8557 	 -39.6273 	 
C 	 -116.734 	 54.2725 	 -39.6654 	 
C 	 -117 	 54.7187 	 -38.3997 	 
H 	 -116.743 	 55.011 	 -40.4624 	 
C 	 -115.927 	 52.206 	 -40.8814 	 
H 	 -116.806 	 51.9637 	 -41.4065 	 
H 	 -115.549 	 51.2302 	 -40.6095 	 
C 	 -114.829 	 52.9513 	 -41.6189 	 
H 	 -114.649 	 52.4781 	 -42.5516 	 
H 	 -115.259 	 53.8961 	 -41.9047 	 
C 	 -113.467 	 53.1443 	 -40.8053 	 
H 	 -113.718 	 53.7151 	 -39.8769 	 
H 	 -112.855 	 52.2498 	 -40.6395 	 
H 	 -112.802 	 53.77 	 -41.3693 	 
S 	 -118.847 	 56.3006 	 -37.2183 	 
C 	 -118.632 	 58.0072 	 -37.1632 	 
C 	 -117.419 	 58.36 	 -37.8085 	 
C 	 -116.682 	 57.2841 	 -38.3324 	 
C 	 -117.308 	 56.0986 	 -38.0861 	 
H 	 -117.102 	 59.3886 	 -37.8489 	 
C 	 -115.313 	 57.4373 	 -38.9268 	 
H 	 -115.333 	 58.2594 	 -39.7137 	 
H 	 -115.046 	 56.4834 	 -39.4754 	 
C 	 -114.146 	 57.7539 	 -37.9742 	 
H 	 -114.088 	 57.0212 	 -37.2239 	 
H 	 -114.385 	 58.6124 	 -37.3942 	 
C 	 -112.898 	 57.921 	 -38.7167 	 
H 	 -112.729 	 58.8757 	 -39.2074 	 
H 	 -112.933 	 57.2264 	 -39.5236 	 
H 	 -112.071 	 57.7704 	 -38.1039 	 
H 	 -115.83 	 51.3063 	 -38.2955 	 
H 	 -119.326 	 58.6321 	 -36.6984 	 
