34

S 	 -46.7815 	 7.09951 	 -19.7287 	 
C 	 -46.8837 	 5.87684 	 -18.5004 	 
C 	 -47.2691 	 6.36002 	 -17.2387 	 
C 	 -47.3534 	 7.75487 	 -17.2194 	 
C 	 -47.1833 	 8.3346 	 -18.4537 	 
H 	 -47.5403 	 8.36093 	 -16.3546 	 
C 	 -47.4062 	 5.56734 	 -15.9677 	 
H 	 -47.3303 	 6.15759 	 -15.0807 	 
H 	 -46.5126 	 4.96562 	 -15.7727 	 
C 	 -48.6588 	 4.67337 	 -15.757 	 
H 	 -48.6444 	 3.8981 	 -16.5041 	 
H 	 -48.7111 	 4.18671 	 -14.7971 	 
C 	 -49.9252 	 5.68801 	 -15.8562 	 
H 	 -50.8765 	 5.38578 	 -15.4386 	 
H 	 -49.7808 	 6.60768 	 -15.3902 	 
H 	 -50.0676 	 5.93343 	 -16.9415 	 
S 	 -46.2906 	 10.4695 	 -19.9579 	 
C 	 -46.8878 	 12.0052 	 -19.6899 	 
C 	 -47.9743 	 11.9394 	 -18.7989 	 
C 	 -48.2449 	 10.6772 	 -18.259 	 
C 	 -47.304 	 9.73847 	 -18.7687 	 
H 	 -48.5226 	 12.8943 	 -18.5627 	 
C 	 -49.4284 	 10.4453 	 -17.4186 	 
H 	 -49.6759 	 11.5068 	 -16.9794 	 
H 	 -49.1361 	 9.89935 	 -16.6158 	 
C 	 -50.6172 	 9.72285 	 -17.9246 	 
H 	 -50.3543 	 8.86375 	 -18.4638 	 
H 	 -51.1962 	 10.3864 	 -18.6043 	 
C 	 -51.5498 	 9.13337 	 -16.7669 	 
H 	 -51.9696 	 9.91757 	 -16.2059 	 
H 	 -51.0358 	 8.51861 	 -16.0495 	 
H 	 -52.3597 	 8.59387 	 -17.1179 	 
H 	 -46.7315 	 4.84539 	 -18.6533 	 
H 	 -46.6792 	 12.8501 	 -20.3258 	 
