34

S 	 -119.331 	 24.0446 	 -16.9622 	 
C 	 -119.594 	 23.4723 	 -18.5491 	 
C 	 -119.374 	 24.4819 	 -19.5116 	 
C 	 -118.824 	 25.6551 	 -18.8959 	 
C 	 -118.929 	 25.6343 	 -17.5103 	 
H 	 -118.623 	 26.6145 	 -19.3899 	 
C 	 -119.408 	 24.3184 	 -21.011 	 
H 	 -120.362 	 24.6077 	 -21.5336 	 
H 	 -119.57 	 23.213 	 -21.1568 	 
C 	 -118.295 	 24.9619 	 -21.8801 	 
H 	 -118.601 	 24.7447 	 -22.91 	 
H 	 -118.286 	 26.0639 	 -21.7343 	 
C 	 -116.864 	 24.4174 	 -21.7926 	 
H 	 -116.656 	 23.4406 	 -22.2489 	 
H 	 -116.16 	 24.9667 	 -22.297 	 
H 	 -116.55 	 24.4151 	 -20.717 	 
S 	 -117.866 	 26.5653 	 -15.1855 	 
C 	 -117.775 	 28.3497 	 -14.9454 	 
C 	 -118.581 	 28.9057 	 -15.8584 	 
C 	 -119.133 	 28.0873 	 -16.8897 	 
C 	 -118.752 	 26.7912 	 -16.6747 	 
H 	 -118.827 	 29.9636 	 -15.911 	 
C 	 -120.023 	 28.6679 	 -17.9731 	 
H 	 -120.221 	 28.048 	 -18.8724 	 
H 	 -119.46 	 29.5521 	 -18.3199 	 
C 	 -121.367 	 29.2076 	 -17.4744 	 
H 	 -121.866 	 30.0079 	 -18.1677 	 
H 	 -121.304 	 29.7667 	 -16.5444 	 
C 	 -122.413 	 28.1513 	 -17.2042 	 
H 	 -123.326 	 28.5505 	 -17.0112 	 
H 	 -122.038 	 27.472 	 -16.3721 	 
H 	 -122.631 	 27.5382 	 -18.0666 	 
H 	 -119.784 	 22.4716 	 -18.8227 	 
H 	 -117.488 	 28.9326 	 -14.0499 	 
