34

S 	 -52.2304 	 12.5642 	 -100.929 	 
C 	 -51.1238 	 12.5272 	 -99.62 	 
C 	 -50.1884 	 11.5385 	 -99.7719 	 
C 	 -50.5245 	 10.6247 	 -100.833 	 
C 	 -51.5943 	 11.0473 	 -101.591 	 
H 	 -50.0029 	 9.68532 	 -101.188 	 
C 	 -48.9715 	 11.4059 	 -98.8085 	 
H 	 -49.0725 	 10.3762 	 -98.5166 	 
H 	 -49.2302 	 12.0384 	 -97.9318 	 
C 	 -47.55 	 11.8681 	 -99.2307 	 
H 	 -47.6553 	 12.939 	 -99.3883 	 
H 	 -46.9763 	 11.8001 	 -98.3337 	 
C 	 -46.8222 	 11.0985 	 -100.309 	 
H 	 -47.2671 	 11.1027 	 -101.362 	 
H 	 -45.8695 	 11.6438 	 -100.496 	 
H 	 -46.5436 	 10.1307 	 -99.9604 	 
S 	 -53.3429 	 11.6386 	 -103.643 	 
C 	 -53.846 	 10.3288 	 -104.761 	 
C 	 -53.1604 	 9.19716 	 -104.509 	 
C 	 -52.2219 	 9.27049 	 -103.453 	 
C 	 -52.232 	 10.5208 	 -102.82 	 
H 	 -53.3313 	 8.33382 	 -105.136 	 
C 	 -51.3771 	 8.12847 	 -103.11 	 
H 	 -51.4758 	 7.8911 	 -102.096 	 
H 	 -50.3791 	 8.49753 	 -103.213 	 
C 	 -51.5332 	 6.80383 	 -103.787 	 
H 	 -51.4213 	 7.10704 	 -104.881 	 
H 	 -52.5866 	 6.58673 	 -103.576 	 
C 	 -50.6075 	 5.6763 	 -103.322 	 
H 	 -50.913 	 5.21581 	 -102.396 	 
H 	 -49.5992 	 5.97479 	 -103.152 	 
H 	 -50.5226 	 4.89356 	 -104.1 	 
H 	 -50.9405 	 13.3311 	 -98.9429 	 
H 	 -54.6114 	 10.4447 	 -105.536 	 
