34

S 	 -93.1423 	 -30.6438 	 -64.0839 	 
C 	 -94.3543 	 -30.5612 	 -65.3398 	 
C 	 -95.0229 	 -29.3753 	 -65.478 	 
C 	 -94.6401 	 -28.4594 	 -64.4798 	 
C 	 -93.6007 	 -28.9389 	 -63.6697 	 
H 	 -95.0466 	 -27.4552 	 -64.3049 	 
C 	 -96.1779 	 -29.0121 	 -66.3879 	 
H 	 -97.0059 	 -28.7488 	 -65.6896 	 
H 	 -96.5969 	 -29.9302 	 -66.8551 	 
C 	 -95.9567 	 -27.8262 	 -67.3685 	 
H 	 -95.3995 	 -26.976 	 -66.9246 	 
H 	 -95.3186 	 -28.2413 	 -68.2009 	 
C 	 -97.3009 	 -27.3591 	 -67.8762 	 
H 	 -97.9138 	 -28.2022 	 -68.1142 	 
H 	 -97.76 	 -26.6202 	 -67.2744 	 
H 	 -97.1471 	 -26.8873 	 -68.8234 	 
S 	 -91.888 	 -29.1359 	 -61.4786 	 
C 	 -91.3359 	 -27.7743 	 -60.523 	 
C 	 -91.9935 	 -26.6939 	 -61.0302 	 
C 	 -92.7695 	 -26.8806 	 -62.2212 	 
C 	 -92.8521 	 -28.1978 	 -62.6325 	 
H 	 -91.8453 	 -25.7258 	 -60.4988 	 
C 	 -93.6205 	 -25.7076 	 -62.7019 	 
H 	 -93.4657 	 -24.8113 	 -62.0851 	 
H 	 -94.6374 	 -26.0919 	 -62.5325 	 
C 	 -93.3887 	 -25.3864 	 -64.2416 	 
H 	 -93.3142 	 -26.1909 	 -64.9252 	 
H 	 -92.3894 	 -24.9063 	 -64.4286 	 
C 	 -94.5463 	 -24.483 	 -64.7667 	 
H 	 -94.5267 	 -23.3419 	 -64.5751 	 
H 	 -95.5216 	 -24.9927 	 -64.5905 	 
H 	 -94.3997 	 -24.5513 	 -65.8541 	 
H 	 -94.6548 	 -31.4268 	 -65.9409 	 
H 	 -90.6564 	 -27.8202 	 -59.6745 	 
