34

S 	 -81.3999 	 2.48036 	 -113.453 	 
C 	 -81.3287 	 0.729926 	 -113.396 	 
C 	 -82.4525 	 0.230107 	 -114.045 	 
C 	 -83.1033 	 1.23291 	 -114.843 	 
C 	 -82.5932 	 2.47966 	 -114.658 	 
H 	 -83.9161 	 1.00092 	 -115.566 	 
C 	 -82.8353 	 -1.217 	 -114.167 	 
H 	 -81.9598 	 -1.73116 	 -113.743 	 
H 	 -82.8552 	 -1.49497 	 -115.249 	 
C 	 -84.0446 	 -1.61995 	 -113.479 	 
H 	 -83.8952 	 -2.75002 	 -113.443 	 
H 	 -84.1151 	 -1.34034 	 -112.407 	 
C 	 -85.3561 	 -1.21212 	 -114.143 	 
H 	 -86.2533 	 -1.59917 	 -113.615 	 
H 	 -85.5712 	 -0.166878 	 -114.285 	 
H 	 -85.4493 	 -1.6718 	 -115.157 	 
S 	 -81.9079 	 4.82947 	 -116.03 	 
C 	 -83.1944 	 5.83181 	 -116.677 	 
C 	 -84.3528 	 5.47714 	 -116.001 	 
C 	 -84.3107 	 4.23868 	 -115.305 	 
C 	 -83.1014 	 3.67537 	 -115.363 	 
H 	 -85.3367 	 6.01594 	 -116.126 	 
C 	 -85.5084 	 3.57092 	 -114.634 	 
H 	 -85.6121 	 2.54462 	 -114.873 	 
H 	 -86.4044 	 4.02076 	 -114.932 	 
C 	 -85.4393 	 3.67271 	 -113.114 	 
H 	 -84.4238 	 3.27088 	 -112.8 	 
H 	 -86.2525 	 3.00171 	 -112.637 	 
C 	 -85.5377 	 5.10167 	 -112.608 	 
H 	 -86.4083 	 5.66451 	 -112.896 	 
H 	 -84.6535 	 5.58263 	 -112.998 	 
H 	 -85.3003 	 5.21628 	 -111.496 	 
H 	 -80.7122 	 0.121456 	 -112.841 	 
H 	 -83.124 	 6.77088 	 -117.22 	 
