34

S 	 -60.4657 	 9.52127 	 -15.5575 	 
C 	 -60.5447 	 7.98966 	 -14.7526 	 
C 	 -60.7831 	 6.94302 	 -15.6234 	 
C 	 -60.9319 	 7.42941 	 -16.9603 	 
C 	 -60.735 	 8.79365 	 -17.1141 	 
H 	 -61.2499 	 6.91036 	 -17.859 	 
C 	 -60.9122 	 5.47634 	 -15.281 	 
H 	 -61.623 	 5.04963 	 -16.0424 	 
H 	 -61.4551 	 5.2505 	 -14.3846 	 
C 	 -59.5397 	 4.78085 	 -15.1558 	 
H 	 -58.9564 	 5.03648 	 -16.0326 	 
H 	 -58.9284 	 5.15793 	 -14.2957 	 
C 	 -59.6186 	 3.18902 	 -15.0345 	 
H 	 -59.9319 	 2.90149 	 -14.0154 	 
H 	 -60.266 	 2.70443 	 -15.7608 	 
H 	 -58.6172 	 2.77469 	 -15.2698 	 
S 	 -62.2658 	 10.9869 	 -18.1912 	 
C 	 -61.9504 	 11.3882 	 -19.829 	 
C 	 -61.0575 	 10.4809 	 -20.4455 	 
C 	 -60.5153 	 9.5169 	 -19.5389 	 
C 	 -61.027 	 9.63561 	 -18.2559 	 
H 	 -60.8408 	 10.556 	 -21.5268 	 
C 	 -59.4218 	 8.54763 	 -19.8987 	 
H 	 -59.34 	 7.74544 	 -19.2042 	 
H 	 -58.5027 	 9.08972 	 -19.9294 	 
C 	 -59.4081 	 7.92151 	 -21.3367 	 
H 	 -58.7996 	 7.02901 	 -21.4552 	 
H 	 -59.1614 	 8.62527 	 -22.0893 	 
C 	 -60.8449 	 7.42904 	 -21.5752 	 
H 	 -60.8681 	 6.84979 	 -22.4524 	 
H 	 -61.6338 	 8.15635 	 -21.8181 	 
H 	 -61.0961 	 6.75951 	 -20.7712 	 
H 	 -60.4816 	 7.86913 	 -13.7313 	 
H 	 -62.6022 	 12.0893 	 -20.358 	 
