34

S 	 -1.40637 	 -24.2796 	 -117.042 	 
C 	 0.0610365 	 -24.66 	 -117.852 	 
C 	 0.887382 	 -23.5958 	 -117.608 	 
C 	 0.381115 	 -22.5831 	 -116.792 	 
C 	 -0.930403 	 -22.8238 	 -116.474 	 
H 	 0.877512 	 -21.7332 	 -116.434 	 
C 	 2.40876 	 -23.5962 	 -117.975 	 
H 	 2.39384 	 -23.7303 	 -119.057 	 
H 	 2.87519 	 -24.4861 	 -117.598 	 
C 	 3.25734 	 -22.294 	 -117.909 	 
H 	 3.31059 	 -21.9445 	 -116.814 	 
H 	 4.31558 	 -22.4346 	 -118.233 	 
C 	 2.77963 	 -21.0629 	 -118.68 	 
H 	 3.33924 	 -20.2473 	 -118.381 	 
H 	 2.96948 	 -21.1455 	 -119.761 	 
H 	 1.71143 	 -20.8952 	 -118.547 	 
S 	 -3.42028 	 -21.7702 	 -116.27 	 
C 	 -3.79503 	 -20.6622 	 -115.042 	 
C 	 -2.79404 	 -20.7349 	 -114.111 	 
C 	 -1.55226 	 -21.3727 	 -114.467 	 
C 	 -1.79828 	 -22.0526 	 -115.634 	 
H 	 -2.82595 	 -20.1247 	 -113.162 	 
C 	 -0.410209 	 -21.7065 	 -113.543 	 
H 	 0.37494 	 -22.3498 	 -114.052 	 
H 	 -0.865115 	 -22.3866 	 -112.845 	 
C 	 0.228184 	 -20.554 	 -112.738 	 
H 	 -0.552937 	 -19.8242 	 -112.405 	 
H 	 0.982605 	 -19.9809 	 -113.282 	 
C 	 0.969586 	 -21.1269 	 -111.527 	 
H 	 0.376397 	 -21.3034 	 -110.606 	 
H 	 1.55367 	 -20.2848 	 -111.128 	 
H 	 1.55529 	 -22.0366 	 -111.706 	 
H 	 0.422311 	 -25.5732 	 -118.342 	 
H 	 -4.71331 	 -20.1455 	 -114.783 	 
