34

S 	 -23.7703 	 -33.6378 	 -92.2776 	 
C 	 -22.411 	 -34.7425 	 -92.491 	 
C 	 -21.4312 	 -34.0804 	 -93.1675 	 
C 	 -21.8349 	 -32.7971 	 -93.6778 	 
C 	 -23.0812 	 -32.3732 	 -93.3039 	 
H 	 -21.2122 	 -32.1694 	 -94.2529 	 
C 	 -19.9861 	 -34.6475 	 -93.3562 	 
H 	 -19.6617 	 -34.1569 	 -94.3409 	 
H 	 -20.0195 	 -35.7471 	 -93.407 	 
C 	 -19.0703 	 -34.1803 	 -92.2084 	 
H 	 -19.2523 	 -33.2002 	 -91.9404 	 
H 	 -19.485 	 -34.7458 	 -91.3342 	 
C 	 -17.6098 	 -34.3347 	 -92.5909 	 
H 	 -17.3287 	 -35.3852 	 -92.5886 	 
H 	 -17.3926 	 -33.7719 	 -93.5204 	 
H 	 -16.9193 	 -33.8623 	 -91.9005 	 
S 	 -24.8174 	 -31.3873 	 -95.0163 	 
C 	 -25.529 	 -29.8162 	 -94.8589 	 
C 	 -24.9634 	 -29.2097 	 -93.7297 	 
C 	 -23.8984 	 -29.936 	 -93.0932 	 
C 	 -23.7737 	 -31.1984 	 -93.6688 	 
H 	 -25.3524 	 -28.2314 	 -93.4451 	 
C 	 -23.285 	 -29.4803 	 -91.8072 	 
H 	 -23.29 	 -30.2266 	 -91.0158 	 
H 	 -23.9301 	 -28.6627 	 -91.4173 	 
C 	 -21.8334 	 -28.9216 	 -91.8586 	 
H 	 -21.8195 	 -28.3006 	 -91.0063 	 
H 	 -21.699 	 -28.3602 	 -92.6895 	 
C 	 -20.575 	 -29.8115 	 -91.6102 	 
H 	 -20.4863 	 -30.5528 	 -92.4334 	 
H 	 -20.6088 	 -30.4246 	 -90.7347 	 
H 	 -19.6503 	 -29.1429 	 -91.5774 	 
H 	 -22.2849 	 -35.6245 	 -91.8913 	 
H 	 -26.424 	 -29.426 	 -95.3893 	 
