34

S 	 -42.5564 	 -1.91001 	 -8.24267 	 
C 	 -42.1329 	 -1.36298 	 -6.5642 	 
C 	 -43.0421 	 -0.469902 	 -6.10647 	 
C 	 -44.0487 	 -0.176252 	 -7.07632 	 
C 	 -43.9745 	 -0.882913 	 -8.23925 	 
H 	 -44.8806 	 0.458224 	 -6.87317 	 
C 	 -43.0406 	 0.256467 	 -4.8285 	 
H 	 -42.8709 	 -0.522118 	 -4.05555 	 
H 	 -44.0426 	 0.655604 	 -4.63796 	 
C 	 -41.992 	 1.4032 	 -4.761 	 
H 	 -41.0392 	 0.92696 	 -4.98808 	 
H 	 -42.04 	 2.24436 	 -5.49925 	 
C 	 -41.7577 	 1.83541 	 -3.31215 	 
H 	 -41.3964 	 1.02224 	 -2.6065 	 
H 	 -41.1952 	 2.73448 	 -3.31855 	 
H 	 -42.7126 	 2.09171 	 -2.85473 	 
S 	 -44.1245 	 -0.761315 	 -10.9478 	 
C 	 -45.6659 	 -0.585775 	 -11.7921 	 
C 	 -46.6622 	 -0.399822 	 -10.897 	 
C 	 -46.193 	 -0.455082 	 -9.49724 	 
C 	 -44.8499 	 -0.709755 	 -9.38322 	 
H 	 -47.6894 	 -0.228162 	 -11.2385 	 
C 	 -47.2717 	 -0.409434 	 -8.38999 	 
H 	 -46.7744 	 -0.758266 	 -7.48841 	 
H 	 -48.0619 	 -1.0846 	 -8.69677 	 
C 	 -47.8839 	 0.927147 	 -8.08947 	 
H 	 -48.2028 	 1.40787 	 -8.93669 	 
H 	 -47.2075 	 1.60757 	 -7.53283 	 
C 	 -49.0949 	 0.814681 	 -7.26082 	 
H 	 -49.2113 	 -0.189233 	 -6.79648 	 
H 	 -50.0511 	 0.975452 	 -7.78466 	 
H 	 -49.1816 	 1.55227 	 -6.46625 	 
H 	 -41.3405 	 -1.86091 	 -6.01768 	 
H 	 -45.7325 	 -0.812657 	 -12.8411 	 
