34

S 	 -48.6109 	 6.14487 	 -22.0125 	 
C 	 -48.09 	 6.13744 	 -20.3592 	 
C 	 -47.9583 	 7.3672 	 -19.7908 	 
C 	 -48.2833 	 8.38514 	 -20.7396 	 
C 	 -48.5856 	 7.98156 	 -21.9583 	 
H 	 -48.2709 	 9.44942 	 -20.6044 	 
C 	 -47.5142 	 7.66476 	 -18.3977 	 
H 	 -47.1435 	 6.77443 	 -17.9332 	 
H 	 -48.5498 	 7.90013 	 -17.9657 	 
C 	 -46.5437 	 8.82935 	 -18.0838 	 
H 	 -46.9226 	 9.78568 	 -18.3198 	 
H 	 -46.2863 	 8.8911 	 -17.0449 	 
C 	 -45.2021 	 8.6466 	 -18.9042 	 
H 	 -44.375 	 9.25449 	 -18.4709 	 
H 	 -44.8416 	 7.61064 	 -18.8032 	 
H 	 -45.1015 	 9.03012 	 -19.9029 	 
S 	 -50.1067 	 8.40529 	 -24.2422 	 
C 	 -49.769 	 9.79686 	 -25.2333 	 
C 	 -48.8227 	 10.6614 	 -24.6646 	 
C 	 -48.1864 	 10.0422 	 -23.5385 	 
C 	 -48.7941 	 8.81235 	 -23.157 	 
H 	 -48.6617 	 11.6296 	 -25.0651 	 
C 	 -47.1431 	 10.8655 	 -22.6841 	 
H 	 -46.2732 	 11.2012 	 -23.2274 	 
H 	 -46.7742 	 10.2527 	 -21.9004 	 
C 	 -47.764 	 12.1659 	 -22.0054 	 
H 	 -48.6689 	 11.979 	 -21.454 	 
H 	 -48.1014 	 12.7286 	 -22.8758 	 
C 	 -46.784 	 12.9186 	 -21.0969 	 
H 	 -47.1958 	 13.742 	 -20.5632 	 
H 	 -45.9529 	 13.3396 	 -21.6584 	 
H 	 -46.4393 	 12.2193 	 -20.3481 	 
H 	 -47.9361 	 5.25264 	 -19.7122 	 
H 	 -50.4419 	 10.1334 	 -26.0838 	 
