34

S 	 -132.717 	 57.9419 	 -61.4525 	 
C 	 -131.659 	 58.8486 	 -62.493 	 
C 	 -130.414 	 58.1878 	 -62.5547 	 
C 	 -130.406 	 56.9501 	 -61.9065 	 
C 	 -131.538 	 56.6852 	 -61.2102 	 
H 	 -129.584 	 56.2294 	 -61.7629 	 
C 	 -129.101 	 58.708 	 -63.1827 	 
H 	 -129.389 	 59.1526 	 -64.1164 	 
H 	 -128.497 	 57.8728 	 -63.5224 	 
C 	 -128.297 	 59.7333 	 -62.3901 	 
H 	 -128.99 	 60.5746 	 -62.1332 	 
H 	 -128.068 	 59.3911 	 -61.3812 	 
C 	 -126.993 	 60.2261 	 -63.0063 	 
H 	 -127.005 	 60.2043 	 -64.1241 	 
H 	 -126.592 	 61.1822 	 -62.523 	 
H 	 -126.206 	 59.5658 	 -62.7807 	 
S 	 -132.145 	 55.8944 	 -58.6036 	 
C 	 -132.312 	 54.1269 	 -58.3191 	 
C 	 -132.114 	 53.3885 	 -59.4592 	 
C 	 -131.788 	 54.2392 	 -60.5695 	 
C 	 -131.776 	 55.5566 	 -60.3237 	 
H 	 -132.047 	 52.2835 	 -59.5577 	 
C 	 -131.429 	 53.6427 	 -61.9453 	 
H 	 -130.756 	 52.828 	 -61.6857 	 
H 	 -130.846 	 54.4259 	 -62.4171 	 
C 	 -132.638 	 53.2002 	 -62.8597 	 
H 	 -133.299 	 54.0883 	 -62.8778 	 
H 	 -132.997 	 52.278 	 -62.4272 	 
C 	 -132.195 	 52.8593 	 -64.2913 	 
H 	 -133.025 	 52.7383 	 -64.9269 	 
H 	 -131.639 	 51.9206 	 -64.347 	 
H 	 -131.467 	 53.6188 	 -64.6621 	 
H 	 -131.869 	 59.7718 	 -62.9456 	 
H 	 -132.447 	 53.6307 	 -57.3658 	 
