34

S 	 -76.9352 	 -12.3128 	 -60.0103 	 
C 	 -77.6979 	 -11.5351 	 -58.6111 	 
C 	 -79.0138 	 -11.2434 	 -58.9471 	 
C 	 -79.3412 	 -11.4057 	 -60.3495 	 
C 	 -78.3092 	 -12.0234 	 -61.0576 	 
H 	 -80.3055 	 -11.229 	 -60.8294 	 
C 	 -80.0481 	 -10.7548 	 -58.0285 	 
H 	 -79.8855 	 -11.2279 	 -57.0939 	 
H 	 -81.0539 	 -11.1 	 -58.283 	 
C 	 -79.9044 	 -9.19879 	 -57.6793 	 
H 	 -78.8823 	 -8.99155 	 -57.5616 	 
H 	 -80.1634 	 -8.54428 	 -58.5562 	 
C 	 -80.5828 	 -8.74167 	 -56.4032 	 
H 	 -80.4114 	 -9.33542 	 -55.5626 	 
H 	 -80.4049 	 -7.73438 	 -56.0475 	 
H 	 -81.7008 	 -8.66978 	 -56.6593 	 
S 	 -78.0811 	 -11.2286 	 -63.5965 	 
C 	 -78.0247 	 -12.4849 	 -64.8364 	 
C 	 -78.6117 	 -13.6777 	 -64.3664 	 
C 	 -78.7421 	 -13.62 	 -62.9747 	 
C 	 -78.318 	 -12.4281 	 -62.4461 	 
H 	 -78.9167 	 -14.4677 	 -65.1212 	 
C 	 -79.3988 	 -14.7457 	 -62.1263 	 
H 	 -79.031 	 -14.5431 	 -61.1388 	 
H 	 -79.03 	 -15.7158 	 -62.3475 	 
C 	 -80.9027 	 -14.8126 	 -62.0618 	 
H 	 -81.0909 	 -15.6532 	 -61.4147 	 
H 	 -81.3529 	 -15.1486 	 -62.9864 	 
C 	 -81.713 	 -13.8226 	 -61.3487 	 
H 	 -81.5612 	 -12.8614 	 -61.8692 	 
H 	 -81.6225 	 -13.7624 	 -60.2692 	 
H 	 -82.7702 	 -14.0247 	 -61.4412 	 
H 	 -77.3961 	 -11.5947 	 -57.5856 	 
H 	 -77.8289 	 -12.3033 	 -65.8807 	 
