34

S 	 46.5448 	 -33.7903 	 -119.647 	 
C 	 47.5762 	 -32.7624 	 -120.56 	 
C 	 46.8836 	 -31.741 	 -121.212 	 
C 	 45.4578 	 -31.905 	 -120.946 	 
C 	 45.1125 	 -33.0075 	 -120.163 	 
H 	 44.6638 	 -31.2068 	 -121.281 	 
C 	 47.5491 	 -30.7028 	 -122.159 	 
H 	 48.5647 	 -30.5021 	 -121.906 	 
H 	 47.0252 	 -29.7245 	 -122.13 	 
C 	 47.6439 	 -31.13 	 -123.584 	 
H 	 48.5408 	 -30.6718 	 -123.984 	 
H 	 47.607 	 -32.2262 	 -123.493 	 
C 	 46.4474 	 -30.6651 	 -124.351 	 
H 	 46.6913 	 -30.8614 	 -125.373 	 
H 	 45.5227 	 -31.2541 	 -124.216 	 
H 	 46.3125 	 -29.5582 	 -124.191 	 
S 	 43.5179 	 -33.7916 	 -117.978 	 
C 	 41.8559 	 -34.1625 	 -118.272 	 
C 	 41.5263 	 -33.7797 	 -119.536 	 
C 	 42.5616 	 -33.19 	 -120.361 	 
C 	 43.7986 	 -33.3012 	 -119.709 	 
H 	 40.4701 	 -33.9719 	 -119.847 	 
C 	 42.2381 	 -32.8633 	 -121.782 	 
H 	 42.3344 	 -31.8137 	 -121.924 	 
H 	 41.1932 	 -33.0393 	 -121.92 	 
C 	 43.0861 	 -33.5812 	 -122.913 	 
H 	 43.1521 	 -34.6344 	 -122.77 	 
H 	 44.1775 	 -33.4153 	 -122.837 	 
C 	 42.6881 	 -33.1503 	 -124.269 	 
H 	 43.0865 	 -33.7981 	 -125.125 	 
H 	 42.9007 	 -32.04 	 -124.476 	 
H 	 41.5508 	 -33.0313 	 -124.308 	 
H 	 48.6128 	 -33.0506 	 -120.838 	 
H 	 41.0782 	 -34.55 	 -117.619 	 
