34

S 	 -100.025 	 7.5548 	 3.92982 	 
C 	 -99.9434 	 5.90097 	 3.50263 	 
C 	 -99.6114 	 5.05672 	 4.58914 	 
C 	 -99.3682 	 5.87871 	 5.78911 	 
C 	 -99.6153 	 7.23093 	 5.59569 	 
H 	 -99.218 	 5.45626 	 6.76423 	 
C 	 -99.4761 	 3.52804 	 4.5229 	 
H 	 -99.1542 	 3.13316 	 5.51421 	 
H 	 -98.5514 	 3.46005 	 3.91651 	 
C 	 -100.615 	 2.67256 	 3.84341 	 
H 	 -101.46 	 2.72338 	 4.48422 	 
H 	 -100.956 	 3.0575 	 2.83442 	 
C 	 -100.179 	 1.15795 	 3.79507 	 
H 	 -100.945 	 0.403032 	 3.48942 	 
H 	 -99.3859 	 1.09237 	 3.11357 	 
H 	 -99.7409 	 0.732602 	 4.72833 	 
S 	 -101.204 	 9.20159 	 6.67356 	 
C 	 -100.643 	 10.1583 	 8.02822 	 
C 	 -99.5604 	 9.50715 	 8.6106 	 
C 	 -98.9616 	 8.51393 	 7.80034 	 
C 	 -99.7607 	 8.23609 	 6.70288 	 
H 	 -99.1263 	 9.95536 	 9.5104 	 
C 	 -97.6056 	 7.88129 	 8.09902 	 
H 	 -96.9143 	 8.61404 	 7.7875 	 
H 	 -97.3785 	 6.95876 	 7.51207 	 
C 	 -97.2814 	 7.74692 	 9.57117 	 
H 	 -98.0747 	 7.1935 	 10.0473 	 
H 	 -97.1889 	 8.80878 	 9.9591 	 
C 	 -95.9802 	 6.92776 	 9.84837 	 
H 	 -95.6774 	 7.16606 	 10.8694 	 
H 	 -95.1671 	 7.47136 	 9.37557 	 
H 	 -95.9714 	 5.88376 	 9.52149 	 
H 	 -100.257 	 5.59539 	 2.53387 	 
H 	 -101.187 	 10.8527 	 8.62258 	 
