34

S 	 -50.8942 	 -50.7948 	 -78.3928 	 
C 	 -50.84 	 -51.8754 	 -79.8185 	 
C 	 -51.9993 	 -51.7393 	 -80.5642 	 
C 	 -52.9966 	 -50.9976 	 -79.923 	 
C 	 -52.6143 	 -50.5813 	 -78.6564 	 
H 	 -53.9773 	 -50.9152 	 -80.3258 	 
C 	 -52.1693 	 -52.3794 	 -81.932 	 
H 	 -53.0382 	 -52.9686 	 -81.8963 	 
H 	 -51.3056 	 -53.0606 	 -82.0407 	 
C 	 -52.2412 	 -51.4045 	 -83.1531 	 
H 	 -52.4385 	 -51.8553 	 -84.092 	 
H 	 -53.1194 	 -50.79 	 -82.9344 	 
C 	 -51.0432 	 -50.4808 	 -83.385 	 
H 	 -50.8357 	 -49.7875 	 -82.6059 	 
H 	 -50.0438 	 -51.0732 	 -83.4655 	 
H 	 -51.1424 	 -49.8006 	 -84.2142 	 
S 	 -53.3498 	 -50.7704 	 -76.0257 	 
C 	 -54.9097 	 -50.196 	 -75.468 	 
C 	 -55.5794 	 -49.5904 	 -76.4705 	 
C 	 -54.7778 	 -49.4346 	 -77.6404 	 
C 	 -53.5198 	 -50.032 	 -77.6074 	 
H 	 -56.5972 	 -49.2515 	 -76.2753 	 
C 	 -55.3425 	 -48.7102 	 -78.8666 	 
H 	 -56.3731 	 -49.1805 	 -79.0735 	 
H 	 -54.7329 	 -48.9588 	 -79.7504 	 
C 	 -55.5137 	 -47.1182 	 -78.6951 	 
H 	 -54.5471 	 -46.5507 	 -78.571 	 
H 	 -56.078 	 -46.9695 	 -77.7459 	 
C 	 -56.3889 	 -46.5117 	 -79.8329 	 
H 	 -55.811 	 -46.0487 	 -80.5755 	 
H 	 -57.1572 	 -45.7892 	 -79.4736 	 
H 	 -56.9812 	 -47.2849 	 -80.3224 	 
H 	 -50.0203 	 -52.4774 	 -80.0999 	 
H 	 -55.3334 	 -50.4523 	 -74.4719 	 
