34

S 	 37.713 	 -7.3467 	 -120.103 	 
C 	 37.5363 	 -7.90624 	 -121.748 	 
C 	 37.9694 	 -6.90418 	 -122.578 	 
C 	 38.1922 	 -5.62159 	 -121.903 	 
C 	 38.0975 	 -5.72204 	 -120.555 	 
H 	 38.4336 	 -4.65299 	 -122.395 	 
C 	 38.1033 	 -7.13074 	 -124.085 	 
H 	 38.5757 	 -8.0736 	 -124.268 	 
H 	 38.7327 	 -6.39559 	 -124.466 	 
C 	 36.8086 	 -6.94241 	 -124.785 	 
H 	 36.1125 	 -7.70187 	 -124.449 	 
H 	 36.3656 	 -5.98322 	 -124.532 	 
C 	 36.8607 	 -7.04286 	 -126.284 	 
H 	 37.4411 	 -6.24551 	 -126.664 	 
H 	 37.2386 	 -7.9607 	 -126.677 	 
H 	 35.9657 	 -6.96562 	 -126.831 	 
S 	 39.9008 	 -4.84162 	 -118.608 	 
C 	 39.5499 	 -3.38696 	 -117.767 	 
C 	 38.4518 	 -2.77497 	 -118.271 	 
C 	 37.7999 	 -3.49193 	 -119.259 	 
C 	 38.3753 	 -4.71249 	 -119.545 	 
H 	 38.157 	 -1.87592 	 -117.744 	 
C 	 36.5978 	 -3.00191 	 -119.907 	 
H 	 35.8341 	 -3.06443 	 -119.097 	 
H 	 36.2469 	 -3.59392 	 -120.749 	 
C 	 36.7086 	 -1.498 	 -120.351 	 
H 	 37.6426 	 -1.3025 	 -120.848 	 
H 	 36.8534 	 -0.872714 	 -119.465 	 
C 	 35.4404 	 -0.960639 	 -121.085 	 
H 	 34.6035 	 -0.664168 	 -120.436 	 
H 	 35.0985 	 -1.6805 	 -121.884 	 
H 	 35.6577 	 -0.0269576 	 -121.627 	 
H 	 37.3898 	 -8.92822 	 -122.028 	 
H 	 40.0424 	 -3.05759 	 -116.817 	 
