34

S 	 -47.7588 	 8.97197 	 -18.778 	 
C 	 -47.6715 	 8.43908 	 -20.419 	 
C 	 -48.871 	 8.07413 	 -20.9996 	 
C 	 -49.9611 	 8.2802 	 -20.0563 	 
C 	 -49.5883 	 8.74811 	 -18.7403 	 
H 	 -50.9724 	 8.11442 	 -20.2477 	 
C 	 -49.1473 	 7.65929 	 -22.4372 	 
H 	 -48.2983 	 7.33114 	 -22.9897 	 
H 	 -49.4276 	 8.51484 	 -23.0237 	 
C 	 -50.3535 	 6.69271 	 -22.6996 	 
H 	 -51.207 	 7.33899 	 -22.8153 	 
H 	 -50.3419 	 6.30902 	 -23.6849 	 
C 	 -50.4949 	 5.50876 	 -21.7305 	 
H 	 -51.466 	 4.97323 	 -21.7736 	 
H 	 -49.7251 	 4.88154 	 -22.0212 	 
H 	 -50.2647 	 5.69825 	 -20.6344 	 
S 	 -49.6072 	 9.88361 	 -16.2451 	 
C 	 -50.8871 	 9.62705 	 -15.1699 	 
C 	 -51.7994 	 8.75339 	 -15.7376 	 
C 	 -51.485 	 8.35184 	 -17.0791 	 
C 	 -50.3471 	 8.88549 	 -17.5273 	 
H 	 -52.6761 	 8.43687 	 -15.1479 	 
C 	 -52.3752 	 7.36129 	 -17.8295 	 
H 	 -52.7156 	 7.74351 	 -18.7948 	 
H 	 -53.3579 	 7.20683 	 -17.3603 	 
C 	 -51.6399 	 5.97849 	 -18.045 	 
H 	 -50.7732 	 6.07644 	 -18.6592 	 
H 	 -52.3093 	 5.26341 	 -18.4825 	 
C 	 -51.2628 	 5.36192 	 -16.7447 	 
H 	 -50.5987 	 5.97181 	 -16.1797 	 
H 	 -50.6953 	 4.4617 	 -16.8424 	 
H 	 -52.1831 	 5.09771 	 -16.1694 	 
H 	 -46.7161 	 8.31892 	 -20.9723 	 
H 	 -50.938 	 10.1684 	 -14.2776 	 
