34

S 	 -57.7398 	 -2.66933 	 -31.1013 	 
C 	 -58.3744 	 -1.22787 	 -31.8192 	 
C 	 -58.4325 	 -0.173198 	 -30.9061 	 
C 	 -57.9975 	 -0.489883 	 -29.5878 	 
C 	 -57.5141 	 -1.82409 	 -29.4796 	 
H 	 -58.0634 	 0.0997442 	 -28.7349 	 
C 	 -58.6656 	 1.22043 	 -31.2429 	 
H 	 -58.3674 	 1.27573 	 -32.2927 	 
H 	 -57.9892 	 1.88706 	 -30.6707 	 
C 	 -60.0202 	 1.81992 	 -31.2536 	 
H 	 -60.6221 	 1.28838 	 -31.9364 	 
H 	 -60.448 	 1.76797 	 -30.2787 	 
C 	 -60.0262 	 3.23147 	 -31.8605 	 
H 	 -59.5514 	 3.24202 	 -32.8421 	 
H 	 -60.9813 	 3.65826 	 -32.0381 	 
H 	 -59.4822 	 3.94529 	 -31.1984 	 
S 	 -57.9612 	 -3.73477 	 -27.6108 	 
C 	 -56.7303 	 -4.12607 	 -26.456 	 
C 	 -55.6686 	 -3.19142 	 -26.5022 	 
C 	 -55.7978 	 -2.32029 	 -27.622 	 
C 	 -56.9389 	 -2.52074 	 -28.3464 	 
H 	 -54.7164 	 -3.31519 	 -25.9727 	 
C 	 -54.7813 	 -1.30945 	 -27.9951 	 
H 	 -55.005 	 -0.983092 	 -28.9722 	 
H 	 -53.8469 	 -1.82046 	 -27.913 	 
C 	 -55.008 	 -0.0999911 	 -27.0826 	 
H 	 -54.8476 	 -0.3808 	 -26.0361 	 
H 	 -56.0164 	 0.215671 	 -27.2083 	 
C 	 -54.07 	 1.12453 	 -27.5274 	 
H 	 -54.1456 	 1.27534 	 -28.5974 	 
H 	 -52.9411 	 0.911042 	 -27.3452 	 
H 	 -54.3451 	 1.97071 	 -26.8942 	 
H 	 -58.7825 	 -1.22911 	 -32.8013 	 
H 	 -56.8056 	 -4.97673 	 -25.7408 	 
