34

S 	 47.7543 	 -23.7173 	 -114.792 	 
C 	 46.1932 	 -23.73 	 -114.065 	 
C 	 45.9111 	 -22.4703 	 -113.537 	 
C 	 46.9772 	 -21.5149 	 -113.688 	 
C 	 48.1208 	 -22.0876 	 -114.301 	 
H 	 46.9956 	 -20.4721 	 -113.356 	 
C 	 44.5794 	 -22.2392 	 -112.815 	 
H 	 43.8909 	 -22.9836 	 -113.255 	 
H 	 44.1501 	 -21.3092 	 -113.037 	 
C 	 44.5458 	 -22.5163 	 -111.29 	 
H 	 45.1247 	 -21.7607 	 -110.825 	 
H 	 43.4392 	 -22.3417 	 -111.005 	 
C 	 45.1062 	 -23.937 	 -110.871 	 
H 	 46.1595 	 -24.0578 	 -111.038 	 
H 	 44.9774 	 -24.1479 	 -109.785 	 
H 	 44.5107 	 -24.6841 	 -111.406 	 
S 	 50.2618 	 -21.8672 	 -115.968 	 
C 	 51.4153 	 -20.5909 	 -115.728 	 
C 	 51.22 	 -19.9426 	 -114.524 	 
C 	 50.1433 	 -20.5329 	 -113.772 	 
C 	 49.4214 	 -21.4986 	 -114.499 	 
H 	 51.8743 	 -19.1752 	 -114.18 	 
C 	 49.7802 	 -19.9296 	 -112.395 	 
H 	 48.6776 	 -19.8517 	 -112.215 	 
H 	 50.0577 	 -18.8186 	 -112.244 	 
C 	 50.3657 	 -20.726 	 -111.23 	 
H 	 51.4594 	 -21.0081 	 -111.524 	 
H 	 49.8183 	 -21.619 	 -110.995 	 
C 	 50.3504 	 -19.9827 	 -109.845 	 
H 	 49.4398 	 -19.4207 	 -109.609 	 
H 	 51.1501 	 -19.25 	 -109.86 	 
H 	 50.6034 	 -20.6506 	 -108.976 	 
H 	 45.5421 	 -24.6551 	 -113.901 	 
H 	 52.1388 	 -20.3198 	 -116.463 	 
