34

S 	 20.944 	 -22.3639 	 -122.078 	 
C 	 22.5322 	 -22.0245 	 -122.77 	 
C 	 23.4937 	 -21.6035 	 -121.841 	 
C 	 22.9053 	 -21.6406 	 -120.507 	 
C 	 21.5588 	 -22.0369 	 -120.441 	 
H 	 23.4525 	 -21.3943 	 -119.627 	 
C 	 24.8357 	 -20.9112 	 -121.997 	 
H 	 25.2431 	 -21.4294 	 -122.907 	 
H 	 25.4005 	 -21.0484 	 -121.182 	 
C 	 24.4767 	 -19.4615 	 -122.492 	 
H 	 23.5532 	 -19.4272 	 -123.143 	 
H 	 24.2559 	 -18.9893 	 -121.626 	 
C 	 25.662 	 -18.7824 	 -123.202 	 
H 	 25.5408 	 -17.7458 	 -123.031 	 
H 	 26.5479 	 -19.1866 	 -122.8 	 
H 	 25.6093 	 -18.9275 	 -124.282 	 
S 	 19.7107 	 -23.5765 	 -119.203 	 
C 	 18.7546 	 -23.0184 	 -117.949 	 
C 	 19.2636 	 -21.8319 	 -117.405 	 
C 	 20.366 	 -21.3496 	 -118.204 	 
C 	 20.6497 	 -22.1572 	 -119.304 	 
H 	 18.9424 	 -21.4564 	 -116.463 	 
C 	 21.1568 	 -20.0983 	 -117.761 	 
H 	 20.5764 	 -19.262 	 -117.427 	 
H 	 21.6514 	 -19.6283 	 -118.556 	 
C 	 22.185 	 -20.2973 	 -116.569 	 
H 	 22.6726 	 -19.3386 	 -116.386 	 
H 	 22.9977 	 -20.9952 	 -116.809 	 
C 	 21.4735 	 -20.6913 	 -115.313 	 
H 	 22.1518 	 -20.6597 	 -114.521 	 
H 	 21.1437 	 -21.7188 	 -115.41 	 
H 	 20.614 	 -20.1014 	 -115.034 	 
H 	 22.8298 	 -21.963 	 -123.819 	 
H 	 18.0593 	 -23.7028 	 -117.488 	 
