34

S 	 -54.1037 	 -1.78843 	 -27.1445 	 
C 	 -53.9907 	 -0.823403 	 -25.6967 	 
C 	 -54.2265 	 0.512808 	 -26.0341 	 
C 	 -54.6823 	 0.719832 	 -27.3862 	 
C 	 -54.7363 	 -0.477815 	 -28.1341 	 
H 	 -55.0555 	 1.65326 	 -27.742 	 
C 	 -54.0037 	 1.54623 	 -24.967 	 
H 	 -53.2391 	 2.14985 	 -25.4705 	 
H 	 -53.6534 	 1.15905 	 -24.0338 	 
C 	 -55.2568 	 2.42388 	 -24.7248 	 
H 	 -55.748 	 2.75009 	 -25.6152 	 
H 	 -56.1078 	 1.85511 	 -24.2852 	 
C 	 -54.9302 	 3.67135 	 -23.888 	 
H 	 -55.8516 	 4.05927 	 -23.4678 	 
H 	 -54.2598 	 3.37428 	 -23.0736 	 
H 	 -54.4428 	 4.49681 	 -24.432 	 
S 	 -54.2596 	 -1.8334 	 -30.4672 	 
C 	 -55.1552 	 -1.42702 	 -31.947 	 
C 	 -56.165 	 -0.600522 	 -31.6767 	 
C 	 -56.2194 	 -0.227417 	 -30.2755 	 
C 	 -55.1194 	 -0.650718 	 -29.5369 	 
H 	 -56.8503 	 -0.447937 	 -32.4547 	 
C 	 -57.2604 	 0.765941 	 -29.7339 	 
H 	 -57.7979 	 1.15082 	 -30.5936 	 
H 	 -56.6976 	 1.64183 	 -29.4595 	 
C 	 -58.0009 	 0.311997 	 -28.5604 	 
H 	 -58.5932 	 1.09611 	 -28.1565 	 
H 	 -57.3481 	 0.0574595 	 -27.7499 	 
C 	 -58.6737 	 -1.10613 	 -28.8708 	 
H 	 -59.4662 	 -1.01102 	 -29.6052 	 
H 	 -59.268 	 -1.62046 	 -28.106 	 
H 	 -57.9172 	 -1.8088 	 -29.2327 	 
H 	 -53.5769 	 -0.987525 	 -24.7359 	 
H 	 -54.9963 	 -1.81232 	 -32.9071 	 
