34

S 	 34.897 	 0.854855 	 -113.551 	 
C 	 34.5302 	 1.85745 	 -114.913 	 
C 	 33.248 	 1.66786 	 -115.365 	 
C 	 32.651 	 0.581718 	 -114.738 	 
C 	 33.4171 	 -0.0642775 	 -113.812 	 
H 	 31.6419 	 0.214185 	 -114.901 	 
C 	 32.4149 	 2.48998 	 -116.385 	 
H 	 31.834 	 1.76856 	 -117.005 	 
H 	 32.9296 	 3.23532 	 -116.916 	 
C 	 31.2126 	 3.20064 	 -115.705 	 
H 	 30.5574 	 2.38222 	 -115.347 	 
H 	 31.4999 	 3.82861 	 -114.865 	 
C 	 30.3307 	 3.90305 	 -116.749 	 
H 	 29.5444 	 4.40733 	 -116.208 	 
H 	 30.7576 	 4.66866 	 -117.428 	 
H 	 29.7406 	 3.31708 	 -117.368 	 
S 	 32.9708 	 -2.78342 	 -113.815 	 
C 	 32.0572 	 -3.44831 	 -112.441 	 
C 	 32.2716 	 -2.68312 	 -111.347 	 
C 	 32.7878 	 -1.38536 	 -111.673 	 
C 	 33.0502 	 -1.23846 	 -113.064 	 
H 	 32.0725 	 -3.0393 	 -110.343 	 
C 	 32.7803 	 -0.277942 	 -110.617 	 
H 	 33.6205 	 0.325122 	 -110.694 	 
H 	 32.9059 	 -0.794329 	 -109.618 	 
C 	 31.4149 	 0.478789 	 -110.561 	 
H 	 31.2506 	 0.958437 	 -111.553 	 
H 	 31.5905 	 1.25279 	 -109.849 	 
C 	 30.1513 	 -0.228161 	 -110.151 	 
H 	 30.345 	 -0.372954 	 -109.11 	 
H 	 30.1235 	 -1.21291 	 -110.617 	 
H 	 29.2335 	 0.36854 	 -110.273 	 
H 	 35.0285 	 2.73471 	 -115.267 	 
H 	 31.706 	 -4.46975 	 -112.319 	 
