34

S 	 -101.501 	 61.4719 	 -98.3581 	 
C 	 -102.822 	 60.5427 	 -98.8367 	 
C 	 -102.706 	 59.9994 	 -100.143 	 
C 	 -101.342 	 60.1618 	 -100.634 	 
C 	 -100.551 	 60.9474 	 -99.7712 	 
H 	 -100.852 	 59.9414 	 -101.585 	 
C 	 -103.768 	 59.1058 	 -100.75 	 
H 	 -104.472 	 58.8273 	 -99.9701 	 
H 	 -103.388 	 58.1387 	 -101.169 	 
C 	 -104.693 	 59.7049 	 -101.836 	 
H 	 -105.255 	 60.5749 	 -101.57 	 
H 	 -103.978 	 59.9427 	 -102.712 	 
C 	 -105.679 	 58.702 	 -102.501 	 
H 	 -106.428 	 58.4392 	 -101.833 	 
H 	 -106.057 	 59.2348 	 -103.385 	 
H 	 -105.138 	 57.8063 	 -102.741 	 
S 	 -98.5343 	 61.5015 	 -101.534 	 
C 	 -97.1152 	 62.1035 	 -100.847 	 
C 	 -96.9232 	 61.6902 	 -99.5122 	 
C 	 -98.1162 	 61.2138 	 -98.9353 	 
C 	 -99.1199 	 61.1736 	 -99.8599 	 
H 	 -96.0081 	 61.9022 	 -98.9877 	 
C 	 -98.2948 	 61.0667 	 -97.4534 	 
H 	 -99.1582 	 61.6433 	 -96.9871 	 
H 	 -97.3926 	 61.4485 	 -97.0505 	 
C 	 -98.3426 	 59.569 	 -97.1158 	 
H 	 -97.4873 	 59.1209 	 -97.5795 	 
H 	 -99.2086 	 59.1279 	 -97.5988 	 
C 	 -98.408 	 59.341 	 -95.5948 	 
H 	 -98.5897 	 58.3158 	 -95.2847 	 
H 	 -99.2283 	 59.9266 	 -95.2456 	 
H 	 -97.4842 	 59.6704 	 -95.1882 	 
H 	 -103.699 	 60.4707 	 -98.231 	 
H 	 -96.3118 	 62.5936 	 -101.398 	 
