34

S 	 -44.6647 	 12.3132 	 26.9938 	 
C 	 -44.7676 	 13.8553 	 27.8152 	 
C 	 -46.0807 	 14.1981 	 28.0978 	 
C 	 -46.9634 	 13.1063 	 27.7095 	 
C 	 -46.364 	 12.0118 	 27.105 	 
H 	 -48.0215 	 13.0307 	 27.6742 	 
C 	 -46.3502 	 15.5293 	 28.6563 	 
H 	 -47.4405 	 15.8054 	 28.4876 	 
H 	 -45.8783 	 16.2512 	 28.0162 	 
C 	 -46.0407 	 15.7145 	 30.1066 	 
H 	 -44.9371 	 15.6806 	 30.3111 	 
H 	 -46.1616 	 16.8046 	 30.2768 	 
C 	 -46.8395 	 15.0247 	 31.1821 	 
H 	 -46.7293 	 15.5602 	 32.1642 	 
H 	 -47.9108 	 14.9324 	 30.9991 	 
H 	 -46.5626 	 13.9678 	 31.4261 	 
S 	 -46.618 	 9.31657 	 27.4537 	 
C 	 -47.8676 	 8.47893 	 26.6417 	 
C 	 -48.3898 	 9.14355 	 25.5643 	 
C 	 -47.955 	 10.5169 	 25.5755 	 
C 	 -47.0016 	 10.7924 	 26.6254 	 
H 	 -49.0581 	 8.69304 	 24.818 	 
C 	 -48.5112 	 11.4737 	 24.4729 	 
H 	 -48.216 	 11.1487 	 23.4964 	 
H 	 -47.9993 	 12.4386 	 24.5558 	 
C 	 -50.0632 	 11.7758 	 24.5404 	 
H 	 -50.3323 	 12.2596 	 25.5039 	 
H 	 -50.6296 	 10.8954 	 24.5221 	 
C 	 -50.6154 	 12.5608 	 23.3216 	 
H 	 -51.5157 	 12.9854 	 23.5834 	 
H 	 -50.6687 	 11.9432 	 22.4957 	 
H 	 -50.0057 	 13.3927 	 22.9905 	 
H 	 -43.9293 	 14.556 	 27.9394 	 
H 	 -47.9948 	 7.34935 	 26.5283 	 
