34

S 	 -116.153 	 30.5435 	 -18.516 	 
C 	 -117.633 	 29.6123 	 -18.2558 	 
C 	 -118.459 	 30.2757 	 -17.4326 	 
C 	 -117.91 	 31.5556 	 -16.9923 	 
C 	 -116.743 	 31.8925 	 -17.6657 	 
H 	 -118.452 	 32.2692 	 -16.3634 	 
C 	 -119.876 	 29.7708 	 -17.0786 	 
H 	 -120.099 	 29.9658 	 -15.9943 	 
H 	 -119.764 	 28.7088 	 -17.0658 	 
C 	 -121.048 	 30.2804 	 -17.9959 	 
H 	 -121.093 	 29.9214 	 -19.024 	 
H 	 -121.965 	 30.025 	 -17.4893 	 
C 	 -121.042 	 31.8074 	 -18.133 	 
H 	 -122.009 	 32.3024 	 -18.4665 	 
H 	 -120.876 	 32.3651 	 -17.2436 	 
H 	 -120.177 	 32.1741 	 -18.7535 	 
S 	 -114.22 	 32.8657 	 -17.7512 	 
C 	 -113.98 	 34.5527 	 -17.2564 	 
C 	 -115.146 	 35.2225 	 -16.9616 	 
C 	 -116.298 	 34.3881 	 -17.1675 	 
C 	 -115.978 	 33.0427 	 -17.4387 	 
H 	 -115.133 	 36.2859 	 -16.7973 	 
C 	 -117.664 	 34.9934 	 -16.9697 	 
H 	 -117.589 	 35.9274 	 -16.3891 	 
H 	 -118.255 	 34.4558 	 -16.2972 	 
C 	 -118.416 	 35.2514 	 -18.2762 	 
H 	 -119.306 	 35.9072 	 -18.1657 	 
H 	 -118.76 	 34.2196 	 -18.5744 	 
C 	 -117.578 	 35.9106 	 -19.3779 	 
H 	 -116.786 	 35.2897 	 -19.7119 	 
H 	 -117.224 	 36.8311 	 -18.9707 	 
H 	 -118.209 	 36.104 	 -20.2939 	 
H 	 -117.863 	 28.6109 	 -18.6393 	 
H 	 -113.017 	 35.0139 	 -17.0545 	 
