34

S 	 -118.817 	 61.1714 	 -37.0329 	 
C 	 -120.029 	 60.8944 	 -38.2322 	 
C 	 -120.827 	 59.8114 	 -37.9709 	 
C 	 -120.464 	 59.1933 	 -36.7596 	 
C 	 -119.428 	 59.8678 	 -36.1215 	 
H 	 -121.013 	 58.4632 	 -36.1911 	 
C 	 -122.062 	 59.5236 	 -38.8272 	 
H 	 -121.704 	 59.6387 	 -39.8442 	 
H 	 -122.778 	 60.3541 	 -38.6466 	 
C 	 -122.732 	 58.0918 	 -38.799 	 
H 	 -123.411 	 58.2291 	 -39.6156 	 
H 	 -122.041 	 57.3383 	 -39.0318 	 
C 	 -123.557 	 57.7032 	 -37.6104 	 
H 	 -123.832 	 56.6298 	 -37.7806 	 
H 	 -122.869 	 57.7151 	 -36.739 	 
H 	 -124.508 	 58.2455 	 -37.4066 	 
S 	 -118.486 	 60.7094 	 -33.7284 	 
C 	 -118.02 	 59.5605 	 -32.529 	 
C 	 -118.394 	 58.3137 	 -32.8769 	 
C 	 -118.73 	 58.1415 	 -34.2847 	 
C 	 -118.851 	 59.4434 	 -34.8429 	 
H 	 -118.271 	 57.6133 	 -32.0429 	 
C 	 -119.11 	 56.7974 	 -34.9109 	 
H 	 -118.661 	 56.7258 	 -35.8466 	 
H 	 -120.211 	 56.8123 	 -35.0743 	 
C 	 -118.66 	 55.5371 	 -34.1796 	 
H 	 -119.358 	 55.4906 	 -33.3747 	 
H 	 -117.618 	 55.7408 	 -33.8573 	 
C 	 -118.562 	 54.1949 	 -34.9188 	 
H 	 -119.581 	 53.9661 	 -35.304 	 
H 	 -118.202 	 53.4222 	 -34.2893 	 
H 	 -117.822 	 54.1582 	 -35.8007 	 
H 	 -120.135 	 61.3377 	 -39.2028 	 
H 	 -117.664 	 59.8466 	 -31.5704 	 
