34

S 	 -106.907 	 70.358 	 -7.03703 	 
C 	 -106.657 	 71.5223 	 -8.28119 	 
C 	 -106.185 	 71.0271 	 -9.44816 	 
C 	 -106.095 	 69.5612 	 -9.37336 	 
C 	 -106.436 	 69.0448 	 -8.13257 	 
H 	 -105.794 	 68.9769 	 -10.1847 	 
C 	 -106.09 	 71.7262 	 -10.7608 	 
H 	 -106.562 	 72.6819 	 -10.6215 	 
H 	 -106.782 	 71.2601 	 -11.4517 	 
C 	 -104.8 	 71.7214 	 -11.571 	 
H 	 -103.97 	 72.0913 	 -10.9941 	 
H 	 -104.649 	 70.7181 	 -11.821 	 
C 	 -104.965 	 72.3024 	 -13.0439 	 
H 	 -105.009 	 73.4192 	 -12.9372 	 
H 	 -104.009 	 72.1654 	 -13.6641 	 
H 	 -105.757 	 71.8822 	 -13.6933 	 
S 	 -105.681 	 67.2493 	 -6.22421 	 
C 	 -106.177 	 65.5997 	 -6.48566 	 
C 	 -106.812 	 65.364 	 -7.67669 	 
C 	 -106.938 	 66.5248 	 -8.45411 	 
C 	 -106.382 	 67.624 	 -7.7702 	 
H 	 -107.217 	 64.4043 	 -7.94504 	 
C 	 -107.807 	 66.5289 	 -9.6782 	 
H 	 -107.214 	 65.9727 	 -10.4426 	 
H 	 -107.837 	 67.5086 	 -10.1205 	 
C 	 -109.216 	 65.949 	 -9.57278 	 
H 	 -109.126 	 64.8255 	 -9.46624 	 
H 	 -109.737 	 66.1338 	 -10.533 	 
C 	 -109.95 	 66.3374 	 -8.35533 	 
H 	 -109.35 	 66.2591 	 -7.50396 	 
H 	 -110.845 	 65.7382 	 -8.30191 	 
H 	 -110.368 	 67.364 	 -8.51235 	 
H 	 -106.792 	 72.5989 	 -8.11467 	 
H 	 -106.008 	 64.7641 	 -5.84962 	 
