34

S 	 -135.732 	 8.94895 	 -10.1599 	 
C 	 -136.574 	 10.1782 	 -9.23812 	 
C 	 -136.558 	 9.88751 	 -7.904 	 
C 	 -135.763 	 8.7293 	 -7.61878 	 
C 	 -135.338 	 8.04476 	 -8.70605 	 
H 	 -135.528 	 8.32312 	 -6.70341 	 
C 	 -137.255 	 10.7391 	 -6.77077 	 
H 	 -136.886 	 11.7895 	 -6.83548 	 
H 	 -136.862 	 10.3282 	 -5.80273 	 
C 	 -138.807 	 10.7944 	 -6.68879 	 
H 	 -139.047 	 11.3327 	 -5.76222 	 
H 	 -139.192 	 11.3126 	 -7.59164 	 
C 	 -139.449 	 9.41727 	 -6.69022 	 
H 	 -139.454 	 8.92251 	 -7.63201 	 
H 	 -139.099 	 8.81947 	 -5.85752 	 
H 	 -140.493 	 9.5468 	 -6.52613 	 
S 	 -135.123 	 5.51042 	 -7.68438 	 
C 	 -133.596 	 4.61396 	 -7.90373 	 
C 	 -132.827 	 5.3064 	 -8.71905 	 
C 	 -133.361 	 6.53035 	 -9.18667 	 
C 	 -134.6 	 6.80881 	 -8.69492 	 
H 	 -131.799 	 4.85755 	 -8.90762 	 
C 	 -132.518 	 7.3979 	 -10.1009 	 
H 	 -133.003 	 8.16941 	 -10.6678 	 
H 	 -132.184 	 6.66728 	 -10.8181 	 
C 	 -131.236 	 8.0468 	 -9.57291 	 
H 	 -130.656 	 7.24503 	 -9.13053 	 
H 	 -131.503 	 8.75417 	 -8.80129 	 
C 	 -130.256 	 8.78471 	 -10.5432 	 
H 	 -129.81 	 8.00352 	 -11.177 	 
H 	 -129.482 	 9.36778 	 -10.0319 	 
H 	 -130.908 	 9.35197 	 -11.3295 	 
H 	 -137.193 	 10.9703 	 -9.71851 	 
H 	 -133.37 	 3.66572 	 -7.41849 	 
