34

S 	 -64.3016 	 12.2897 	 -120.974 	 
C 	 -63.9059 	 11.7614 	 -119.386 	 
C 	 -63.4056 	 12.8583 	 -118.614 	 
C 	 -63.5085 	 14.1214 	 -119.316 	 
C 	 -64.0177 	 13.9657 	 -120.58 	 
H 	 -63.1517 	 15.1525 	 -119.085 	 
C 	 -62.8295 	 12.7753 	 -117.198 	 
H 	 -63.58 	 12.8189 	 -116.418 	 
H 	 -62.1217 	 13.5648 	 -117.037 	 
C 	 -62.0299 	 11.5194 	 -116.8 	 
H 	 -62.6708 	 10.6521 	 -116.995 	 
H 	 -61.198 	 11.3481 	 -117.55 	 
C 	 -61.5486 	 11.6186 	 -115.327 	 
H 	 -62.4656 	 11.7085 	 -114.752 	 
H 	 -61.0029 	 10.7275 	 -114.931 	 
H 	 -61.0072 	 12.5791 	 -115.19 	 
S 	 -63.5101 	 14.7068 	 -123.297 	 
C 	 -63.6552 	 16.3989 	 -123.7 	 
C 	 -64.2593 	 17.1493 	 -122.628 	 
C 	 -64.4702 	 16.3301 	 -121.451 	 
C 	 -64.062 	 15.0154 	 -121.608 	 
H 	 -64.5162 	 18.1563 	 -122.816 	 
C 	 -65.0754 	 16.7699 	 -120.16 	 
H 	 -65.4009 	 15.8883 	 -119.536 	 
H 	 -66.0695 	 17.268 	 -120.231 	 
C 	 -64.1976 	 17.697 	 -119.309 	 
H 	 -64.3964 	 18.7271 	 -119.647 	 
H 	 -63.1302 	 17.6036 	 -119.403 	 
C 	 -64.5604 	 17.7153 	 -117.773 	 
H 	 -64.294 	 16.7807 	 -117.277 	 
H 	 -65.5456 	 17.9493 	 -117.569 	 
H 	 -63.9656 	 18.5166 	 -117.359 	 
H 	 -63.9018 	 10.7834 	 -118.881 	 
H 	 -63.4266 	 16.8595 	 -124.688 	 
