34

S 	 -131.484 	 73.4009 	 -66.1043 	 
C 	 -130.064 	 73.6193 	 -65.0629 	 
C 	 -130.476 	 74.1063 	 -63.8505 	 
C 	 -131.904 	 74.4102 	 -63.7581 	 
C 	 -132.581 	 74.0078 	 -64.9163 	 
H 	 -132.344 	 74.702 	 -62.8186 	 
C 	 -129.634 	 74.0846 	 -62.652 	 
H 	 -128.607 	 73.9495 	 -63.0256 	 
H 	 -129.774 	 73.1337 	 -62.147 	 
C 	 -129.701 	 75.3747 	 -61.7662 	 
H 	 -130.725 	 75.5573 	 -61.3698 	 
H 	 -128.992 	 75.3009 	 -60.955 	 
C 	 -129.325 	 76.6722 	 -62.4934 	 
H 	 -129.389 	 77.4904 	 -61.8072 	 
H 	 -128.334 	 76.8347 	 -62.9842 	 
H 	 -130.072 	 76.9216 	 -63.2711 	 
S 	 -134.754 	 72.6342 	 -65.646 	 
C 	 -136.326 	 73.3843 	 -65.7389 	 
C 	 -136.209 	 74.766 	 -65.3999 	 
C 	 -134.926 	 75.2066 	 -65.0057 	 
C 	 -134.005 	 74.1405 	 -65.1424 	 
H 	 -137.075 	 75.4057 	 -65.3207 	 
C 	 -134.562 	 76.6146 	 -64.5796 	 
H 	 -134.947 	 77.2008 	 -65.354 	 
H 	 -133.455 	 76.6643 	 -64.6391 	 
C 	 -135.051 	 77.006 	 -63.1382 	 
H 	 -134.98 	 76.1586 	 -62.4944 	 
H 	 -136.085 	 77.1752 	 -63.1892 	 
C 	 -134.341 	 78.3124 	 -62.6545 	 
H 	 -134.78 	 78.7015 	 -61.746 	 
H 	 -134.417 	 79.0134 	 -63.5469 	 
H 	 -133.231 	 78.1819 	 -62.4626 	 
H 	 -129.036 	 73.3553 	 -65.2782 	 
H 	 -137.185 	 73.0121 	 -66.2881 	 
