34

S 	 -41.5545 	 -4.93561 	 19.7466 	 
C 	 -42.5407 	 -5.54296 	 18.4159 	 
C 	 -43.5879 	 -6.31354 	 18.9585 	 
C 	 -43.7462 	 -6.08426 	 20.3643 	 
C 	 -42.8831 	 -5.15022 	 20.8617 	 
H 	 -44.4698 	 -6.60282 	 20.9033 	 
C 	 -44.3628 	 -7.42045 	 18.0751 	 
H 	 -44.8729 	 -8.0943 	 18.7003 	 
H 	 -43.6746 	 -7.96438 	 17.507 	 
C 	 -45.5105 	 -6.90045 	 17.2423 	 
H 	 -46.2195 	 -6.30099 	 17.8976 	 
H 	 -44.9646 	 -6.14068 	 16.6399 	 
C 	 -46.3411 	 -7.82234 	 16.3051 	 
H 	 -46.3255 	 -8.87876 	 16.6757 	 
H 	 -47.4189 	 -7.4916 	 16.1038 	 
H 	 -45.7889 	 -7.97213 	 15.3651 	 
S 	 -41.4004 	 -5.24269 	 23.194 	 
C 	 -42.0928 	 -4.71601 	 24.7578 	 
C 	 -43.347 	 -4.17972 	 24.5123 	 
C 	 -43.8173 	 -4.3423 	 23.1218 	 
C 	 -42.7666 	 -4.68545 	 22.2614 	 
H 	 -44.0558 	 -3.86449 	 25.2789 	 
C 	 -45.1997 	 -3.95946 	 22.7791 	 
H 	 -45.3972 	 -3.80163 	 21.7025 	 
H 	 -45.4279 	 -3.08486 	 23.241 	 
C 	 -46.1873 	 -5.02896 	 23.3714 	 
H 	 -46.3368 	 -4.85653 	 24.4044 	 
H 	 -45.7527 	 -6.03956 	 23.3046 	 
C 	 -47.5511 	 -5.00573 	 22.7096 	 
H 	 -47.4433 	 -5.09425 	 21.6279 	 
H 	 -47.9865 	 -4.03119 	 22.8244 	 
H 	 -48.2467 	 -5.80171 	 22.9617 	 
H 	 -42.2117 	 -5.58211 	 17.4142 	 
H 	 -41.6802 	 -4.81777 	 25.6811 	 
