34

S 	 -121.44 	 50.1418 	 -32.2278 	 
C 	 -122.858 	 49.9924 	 -33.1795 	 
C 	 -123.175 	 51.1421 	 -33.8506 	 
C 	 -122.509 	 52.2616 	 -33.2601 	 
C 	 -121.614 	 51.9104 	 -32.2735 	 
H 	 -122.717 	 53.2898 	 -33.517 	 
C 	 -124.272 	 51.3397 	 -34.8688 	 
H 	 -124.55 	 50.3647 	 -35.3215 	 
H 	 -123.95 	 51.949 	 -35.7674 	 
C 	 -125.572 	 51.9816 	 -34.3595 	 
H 	 -125.38 	 53.0276 	 -34.1329 	 
H 	 -126.254 	 51.9357 	 -35.2179 	 
C 	 -126.025 	 51.1232 	 -33.125 	 
H 	 -125.461 	 51.3829 	 -32.2682 	 
H 	 -127.112 	 51.31 	 -32.874 	 
H 	 -126.072 	 50.0179 	 -33.0744 	 
S 	 -119.038 	 52.3655 	 -31.3273 	 
C 	 -118.755 	 53.7848 	 -30.2888 	 
C 	 -119.867 	 54.5465 	 -30.2215 	 
C 	 -120.966 	 53.9866 	 -30.8705 	 
C 	 -120.729 	 52.7471 	 -31.493 	 
H 	 -119.841 	 55.5419 	 -29.7722 	 
C 	 -122.331 	 54.6933 	 -30.8212 	 
H 	 -122.78 	 54.7523 	 -31.7936 	 
H 	 -122.041 	 55.6991 	 -30.6498 	 
C 	 -123.389 	 54.2394 	 -29.7632 	 
H 	 -123.736 	 53.2263 	 -29.8907 	 
H 	 -124.296 	 54.9134 	 -29.9152 	 
C 	 -122.971 	 54.4847 	 -28.2912 	 
H 	 -123.846 	 54.4724 	 -27.5906 	 
H 	 -122.388 	 55.3942 	 -28.2195 	 
H 	 -122.389 	 53.5596 	 -27.9404 	 
H 	 -123.284 	 49.0473 	 -33.5117 	 
H 	 -117.845 	 54.1307 	 -29.8939 	 
