34

S 	 -101.668 	 24.7994 	 -111.198 	 
C 	 -101.731 	 23.3131 	 -110.283 	 
C 	 -102.212 	 23.511 	 -109.021 	 
C 	 -102.459 	 24.8754 	 -108.824 	 
C 	 -102.254 	 25.7404 	 -109.894 	 
H 	 -102.675 	 25.314 	 -107.91 	 
C 	 -102.311 	 22.5199 	 -107.892 	 
H 	 -101.641 	 22.8129 	 -107.106 	 
H 	 -101.976 	 21.5436 	 -108.309 	 
C 	 -103.753 	 22.3759 	 -107.243 	 
H 	 -104.266 	 23.3165 	 -106.998 	 
H 	 -104.551 	 21.9632 	 -107.888 	 
C 	 -103.658 	 21.5113 	 -105.894 	 
H 	 -104.648 	 21.4602 	 -105.504 	 
H 	 -103.167 	 20.6631 	 -106.135 	 
H 	 -102.949 	 22.0501 	 -105.228 	 
S 	 -101.279 	 28.2128 	 -110.664 	 
C 	 -102.207 	 29.5934 	 -110.238 	 
C 	 -103.406 	 29.2203 	 -109.715 	 
C 	 -103.727 	 27.8213 	 -109.696 	 
C 	 -102.562 	 27.1427 	 -110.008 	 
H 	 -104.013 	 30.0747 	 -109.337 	 
C 	 -105.036 	 27.3556 	 -109.129 	 
H 	 -105.248 	 26.3891 	 -109.597 	 
H 	 -105.832 	 28.0716 	 -109.407 	 
C 	 -105.1 	 27.2317 	 -107.578 	 
H 	 -104.324 	 26.5421 	 -107.225 	 
H 	 -106.001 	 26.6274 	 -107.401 	 
C 	 -105.091 	 28.5501 	 -106.82 	 
H 	 -105.746 	 29.2716 	 -107.179 	 
H 	 -104.117 	 28.9609 	 -106.699 	 
H 	 -105.546 	 28.2392 	 -105.846 	 
H 	 -101.238 	 22.4277 	 -110.674 	 
H 	 -101.876 	 30.6472 	 -110.283 	 
