34

S 	 -77.298 	 -17.3746 	 -52.9116 	 
C 	 -78.1931 	 -18.6279 	 -52.0958 	 
C 	 -79.4028 	 -18.134 	 -51.6269 	 
C 	 -79.4817 	 -16.7696 	 -51.8523 	 
C 	 -78.4525 	 -16.202 	 -52.5074 	 
H 	 -80.2606 	 -16.1221 	 -51.4323 	 
C 	 -80.3131 	 -18.8093 	 -50.607 	 
H 	 -80.1301 	 -18.4862 	 -49.6134 	 
H 	 -80.0274 	 -19.9371 	 -50.5645 	 
C 	 -81.7764 	 -18.6262 	 -50.7574 	 
H 	 -82.3439 	 -19.306 	 -50.1411 	 
H 	 -82.1316 	 -17.6636 	 -50.5526 	 
C 	 -82.246 	 -18.925 	 -52.1748 	 
H 	 -82.0197 	 -19.9261 	 -52.6253 	 
H 	 -83.3541 	 -18.6971 	 -52.2993 	 
H 	 -81.7975 	 -18.0798 	 -52.7699 	 
S 	 -78.2257 	 -14.4661 	 -54.5923 	 
C 	 -78.4556 	 -12.7355 	 -54.4028 	 
C 	 -78.4739 	 -12.4485 	 -53.072 	 
C 	 -78.5592 	 -13.596 	 -52.1816 	 
C 	 -78.4691 	 -14.7898 	 -52.89 	 
H 	 -78.5693 	 -11.4356 	 -52.798 	 
C 	 -78.6785 	 -13.3873 	 -50.7141 	 
H 	 -78.0088 	 -12.6175 	 -50.3414 	 
H 	 -78.2011 	 -14.2973 	 -50.3062 	 
C 	 -80.0649 	 -13.2017 	 -50.115 	 
H 	 -80.5601 	 -14.0918 	 -50.3629 	 
H 	 -80.5293 	 -12.426 	 -50.8145 	 
C 	 -79.9986 	 -12.8869 	 -48.5498 	 
H 	 -79.5135 	 -11.9956 	 -48.3453 	 
H 	 -79.4043 	 -13.6823 	 -48.0723 	 
H 	 -80.9879 	 -12.7517 	 -48.117 	 
H 	 -77.7194 	 -19.5341 	 -51.9263 	 
H 	 -78.3306 	 -12.0059 	 -55.1873 	 
