34

S 	 -64.3477 	 5.26291 	 -69.2513 	 
C 	 -64.9425 	 6.66444 	 -70.0646 	 
C 	 -66.3208 	 6.53801 	 -70.4164 	 
C 	 -66.8285 	 5.24729 	 -70.0851 	 
C 	 -65.9172 	 4.49729 	 -69.3876 	 
H 	 -67.8569 	 4.9384 	 -70.1216 	 
C 	 -67.2119 	 7.52684 	 -71.1283 	 
H 	 -67.8957 	 6.96215 	 -71.793 	 
H 	 -66.6079 	 8.29742 	 -71.7326 	 
C 	 -68.1501 	 8.43034 	 -70.2399 	 
H 	 -67.4329 	 9.02502 	 -69.6379 	 
H 	 -68.6213 	 9.12221 	 -70.9397 	 
C 	 -69.2812 	 7.77471 	 -69.3145 	 
H 	 -69.6063 	 8.39923 	 -68.4997 	 
H 	 -70.1494 	 7.43349 	 -69.9313 	 
H 	 -69.0035 	 6.92215 	 -68.7191 	 
S 	 -67.3401 	 3.07751 	 -67.5416 	 
C 	 -66.9903 	 1.43011 	 -67.2638 	 
C 	 -66.073 	 0.963072 	 -68.1862 	 
C 	 -65.572 	 1.94412 	 -69.056 	 
C 	 -66.0862 	 3.20659 	 -68.7932 	 
H 	 -65.8434 	 -0.107326 	 -68.1737 	 
C 	 -64.6383 	 1.75623 	 -70.1977 	 
H 	 -64.0958 	 0.852149 	 -69.8917 	 
H 	 -64.0525 	 2.67588 	 -70.2133 	 
C 	 -65.2023 	 1.51211 	 -71.5618 	 
H 	 -65.8677 	 2.40511 	 -71.789 	 
H 	 -65.8411 	 0.637657 	 -71.5031 	 
C 	 -64.1311 	 1.15661 	 -72.5523 	 
H 	 -64.3967 	 1.09209 	 -73.6402 	 
H 	 -63.6906 	 0.256287 	 -72.1319 	 
H 	 -63.377 	 1.98369 	 -72.5236 	 
H 	 -64.3779 	 7.55573 	 -70.2128 	 
H 	 -67.3105 	 0.752136 	 -66.3784 	 
