34

S 	 -65.5118 	 7.42396 	 -78.0268 	 
C 	 -64.7915 	 6.11088 	 -78.9343 	 
C 	 -65.405 	 5.93574 	 -80.238 	 
C 	 -66.3431 	 6.98884 	 -80.4575 	 
C 	 -66.3703 	 7.93142 	 -79.4988 	 
H 	 -66.8989 	 7.11899 	 -81.3417 	 
C 	 -65.1179 	 4.98735 	 -81.2976 	 
H 	 -65.6064 	 3.99639 	 -81.0818 	 
H 	 -64.0759 	 4.69135 	 -81.2765 	 
C 	 -65.4775 	 5.36712 	 -82.8519 	 
H 	 -66.5645 	 5.46772 	 -82.9236 	 
H 	 -65.0544 	 6.32614 	 -83.1692 	 
C 	 -64.9959 	 4.32109 	 -83.9586 	 
H 	 -65.4924 	 3.41221 	 -83.693 	 
H 	 -65.4297 	 4.57658 	 -84.9476 	 
H 	 -63.9663 	 4.05283 	 -84.0685 	 
S 	 -66.7111 	 10.1506 	 -81.1465 	 
C 	 -67.8156 	 11.38 	 -80.656 	 
C 	 -68.2419 	 11.2125 	 -79.3697 	 
C 	 -67.7289 	 10.0033 	 -78.7984 	 
C 	 -66.9492 	 9.26524 	 -79.6945 	 
H 	 -68.8319 	 11.9983 	 -78.8675 	 
C 	 -68.21 	 9.50021 	 -77.448 	 
H 	 -67.9013 	 8.49217 	 -77.4602 	 
H 	 -69.3299 	 9.53195 	 -77.4655 	 
C 	 -67.5935 	 10.0951 	 -76.1902 	 
H 	 -67.9826 	 11.1235 	 -76.1714 	 
H 	 -66.5345 	 10.0382 	 -76.4138 	 
C 	 -68.0775 	 9.17305 	 -75.0189 	 
H 	 -67.5292 	 9.37886 	 -74.0815 	 
H 	 -67.8359 	 8.05025 	 -75.2416 	 
H 	 -69.1785 	 9.27196 	 -74.8131 	 
H 	 -63.9567 	 5.53118 	 -78.5027 	 
H 	 -68.0127 	 12.2531 	 -81.1815 	 
