34

S 	 21.2242 	 -6.68118 	 -113.725 	 
C 	 21.9336 	 -7.87202 	 -112.617 	 
C 	 23.2576 	 -7.6436 	 -112.445 	 
C 	 23.6526 	 -6.33563 	 -112.894 	 
C 	 22.6131 	 -5.63409 	 -113.409 	 
H 	 24.6176 	 -5.87478 	 -112.88 	 
C 	 24.2431 	 -8.58585 	 -111.856 	 
H 	 24.9782 	 -9.01813 	 -112.573 	 
H 	 23.8158 	 -9.53752 	 -111.466 	 
C 	 25.1045 	 -7.95796 	 -110.732 	 
H 	 25.7308 	 -7.11726 	 -111.081 	 
H 	 24.5229 	 -7.55307 	 -109.826 	 
C 	 26.0975 	 -9.04678 	 -110.347 	 
H 	 26.9738 	 -8.66766 	 -109.788 	 
H 	 25.8539 	 -9.93788 	 -109.695 	 
H 	 26.5427 	 -9.37662 	 -111.241 	 
S 	 22.4162 	 -3.99142 	 -115.66 	 
C 	 22.946 	 -2.31637 	 -115.512 	 
C 	 23.2948 	 -2.0071 	 -114.259 	 
C 	 23.0933 	 -3.06491 	 -113.298 	 
C 	 22.7723 	 -4.29448 	 -113.939 	 
H 	 23.5015 	 -0.975345 	 -114.072 	 
C 	 23.4241 	 -2.9057 	 -111.812 	 
H 	 24.2369 	 -2.25185 	 -111.788 	 
H 	 23.768 	 -3.8585 	 -111.528 	 
C 	 22.1984 	 -2.49537 	 -110.948 	 
H 	 21.3901 	 -3.15841 	 -110.916 	 
H 	 21.7463 	 -1.64737 	 -111.539 	 
C 	 22.6824 	 -1.98632 	 -109.589 	 
H 	 23.1841 	 -0.964228 	 -109.573 	 
H 	 23.2947 	 -2.64211 	 -109.001 	 
H 	 21.8094 	 -1.84154 	 -108.947 	 
H 	 21.4235 	 -8.80539 	 -112.342 	 
H 	 22.8937 	 -1.46825 	 -116.189 	 
