34

S 	 -35.679 	 -38.3614 	 -91.4762 	 
C 	 -34.1323 	 -38.0072 	 -90.7622 	 
C 	 -34.1081 	 -36.7245 	 -90.2093 	 
C 	 -35.2751 	 -35.999 	 -90.5829 	 
C 	 -36.2318 	 -36.6965 	 -91.3244 	 
H 	 -35.499 	 -34.9786 	 -90.2625 	 
C 	 -32.9423 	 -36.1057 	 -89.4262 	 
H 	 -32.6764 	 -35.162 	 -89.9048 	 
H 	 -32.0393 	 -36.6869 	 -89.6427 	 
C 	 -33.0867 	 -35.894 	 -87.9232 	 
H 	 -33.7624 	 -36.4538 	 -87.3792 	 
H 	 -32.0801 	 -35.9861 	 -87.4513 	 
C 	 -33.4833 	 -34.4864 	 -87.6144 	 
H 	 -32.7824 	 -33.8398 	 -88.1024 	 
H 	 -34.4175 	 -34.3484 	 -88.0068 	 
H 	 -33.5531 	 -34.231 	 -86.5722 	 
S 	 -38.8523 	 -37.0367 	 -91.9766 	 
C 	 -39.7774 	 -35.7174 	 -92.7452 	 
C 	 -38.9204 	 -34.7123 	 -93.0005 	 
C 	 -37.5498 	 -34.9533 	 -92.6132 	 
C 	 -37.3504 	 -36.188 	 -92.0073 	 
H 	 -39.2512 	 -33.838 	 -93.521 	 
C 	 -36.5532 	 -33.8627 	 -92.7643 	 
H 	 -36.3891 	 -33.5894 	 -93.8465 	 
H 	 -35.5744 	 -34.2101 	 -92.4507 	 
C 	 -36.934 	 -32.5092 	 -92.0251 	 
H 	 -37.2124 	 -32.8267 	 -90.9869 	 
H 	 -37.8392 	 -32.0669 	 -92.4068 	 
C 	 -35.7147 	 -31.5695 	 -92.0933 	 
H 	 -35.3641 	 -31.3421 	 -93.1382 	 
H 	 -34.9104 	 -31.9482 	 -91.5439 	 
H 	 -35.8537 	 -30.5653 	 -91.7113 	 
H 	 -33.3378 	 -38.7597 	 -90.6165 	 
H 	 -40.8174 	 -35.6826 	 -93.0022 	 
