34

S 	 -99.1601 	 1.63877 	 -119.26 	 
C 	 -99.8791 	 2.82923 	 -120.295 	 
C 	 -100.796 	 3.59666 	 -119.643 	 
C 	 -100.911 	 3.2265 	 -118.252 	 
C 	 -100.174 	 2.08882 	 -117.972 	 
H 	 -101.447 	 3.68092 	 -117.557 	 
C 	 -101.741 	 4.67136 	 -120.211 	 
H 	 -100.937 	 5.35754 	 -120.492 	 
H 	 -102.269 	 5.12665 	 -119.376 	 
C 	 -102.774 	 4.2873 	 -121.311 	 
H 	 -103.086 	 3.29045 	 -121.088 	 
H 	 -103.667 	 4.91528 	 -121.379 	 
C 	 -101.951 	 4.33712 	 -122.68 	 
H 	 -102.587 	 4.14107 	 -123.513 	 
H 	 -101.475 	 5.28306 	 -122.88 	 
H 	 -101.093 	 3.66981 	 -122.659 	 
S 	 -98.7733 	 1.80182 	 -115.739 	 
C 	 -99.3608 	 0.932217 	 -114.392 	 
C 	 -100.696 	 0.644286 	 -114.581 	 
C 	 -101.166 	 0.898881 	 -115.934 	 
C 	 -100.163 	 1.469 	 -116.668 	 
H 	 -101.321 	 0.259798 	 -113.787 	 
C 	 -102.551 	 0.537987 	 -116.38 	 
H 	 -102.681 	 -0.52447 	 -116.163 	 
H 	 -102.578 	 0.621558 	 -117.483 	 
C 	 -103.726 	 1.39659 	 -115.944 	 
H 	 -103.525 	 2.4105 	 -116.241 	 
H 	 -103.867 	 1.41351 	 -114.847 	 
C 	 -104.963 	 0.8261 	 -116.603 	 
H 	 -104.905 	 0.921852 	 -117.627 	 
H 	 -105.914 	 1.38841 	 -116.35 	 
H 	 -105 	 -0.222511 	 -116.348 	 
H 	 -99.666 	 3.01148 	 -121.296 	 
H 	 -98.9491 	 0.929551 	 -113.351 	 
