34

S 	 -48.76 	 -0.790059 	 -17.6174 	 
C 	 -49.11 	 -2.28983 	 -18.548 	 
C 	 -48.8677 	 -3.40504 	 -17.7824 	 
C 	 -48.5632 	 -3.06978 	 -16.4109 	 
C 	 -48.4356 	 -1.70261 	 -16.1001 	 
H 	 -48.4269 	 -3.70066 	 -15.5401 	 
C 	 -48.9134 	 -4.84234 	 -18.1967 	 
H 	 -49.8172 	 -5.2104 	 -17.7321 	 
H 	 -48.0049 	 -5.33647 	 -17.6617 	 
C 	 -48.8075 	 -5.26317 	 -19.678 	 
H 	 -49.7381 	 -4.9286 	 -20.0536 	 
H 	 -47.9822 	 -4.64238 	 -20.1368 	 
C 	 -48.7937 	 -6.80496 	 -19.8607 	 
H 	 -48.8794 	 -6.9683 	 -20.945 	 
H 	 -47.8826 	 -7.28093 	 -19.4063 	 
H 	 -49.6062 	 -7.33754 	 -19.3108 	 
S 	 -46.6471 	 0.0880784 	 -15.0973 	 
C 	 -46.6081 	 0.438587 	 -13.3585 	 
C 	 -47.4087 	 -0.447653 	 -12.6908 	 
C 	 -48.1989 	 -1.32361 	 -13.5015 	 
C 	 -47.9065 	 -1.13589 	 -14.8749 	 
H 	 -47.5912 	 -0.362802 	 -11.6213 	 
C 	 -49.1773 	 -2.30089 	 -12.8816 	 
H 	 -49.2299 	 -2.18136 	 -11.8106 	 
H 	 -48.7816 	 -3.29145 	 -13.023 	 
C 	 -50.656 	 -2.16844 	 -13.2054 	 
H 	 -50.7901 	 -2.5874 	 -14.1923 	 
H 	 -51.0013 	 -1.16635 	 -13.1322 	 
C 	 -51.5629 	 -3.02209 	 -12.2841 	 
H 	 -51.4349 	 -4.05301 	 -12.3671 	 
H 	 -52.626 	 -2.82842 	 -12.4975 	 
H 	 -51.4006 	 -2.88131 	 -11.1946 	 
H 	 -49.3024 	 -2.23906 	 -19.653 	 
H 	 -46.0227 	 1.21488 	 -12.8524 	 
