34

S 	 -138.078 	 6.72581 	 1.00397 	 
C 	 -137.844 	 7.24384 	 -0.635598 	 
C 	 -136.518 	 7.59217 	 -0.877212 	 
C 	 -135.688 	 7.15768 	 0.18203 	 
C 	 -136.382 	 6.7321 	 1.28012 	 
H 	 -134.618 	 7.06051 	 0.289444 	 
C 	 -135.978 	 8.05317 	 -2.20248 	 
H 	 -136.462 	 7.43787 	 -2.98921 	 
H 	 -134.875 	 8.06659 	 -2.18882 	 
C 	 -136.484 	 9.4271 	 -2.58742 	 
H 	 -136.28 	 9.69786 	 -3.61434 	 
H 	 -137.569 	 9.5178 	 -2.49518 	 
C 	 -135.992 	 10.4623 	 -1.62096 	 
H 	 -136.232 	 10.1811 	 -0.528678 	 
H 	 -134.951 	 10.6613 	 -1.75126 	 
H 	 -136.38 	 11.4342 	 -1.89895 	 
S 	 -135.587 	 7.19191 	 3.92946 	 
C 	 -135.006 	 5.81879 	 4.90534 	 
C 	 -134.996 	 4.63544 	 4.19861 	 
C 	 -135.365 	 4.83516 	 2.76666 	 
C 	 -135.816 	 6.15293 	 2.51081 	 
H 	 -134.617 	 3.70621 	 4.638 	 
C 	 -135.349 	 3.68039 	 1.83891 	 
H 	 -135.972 	 4.12575 	 0.988038 	 
H 	 -136.006 	 2.83038 	 2.19256 	 
C 	 -133.995 	 3.24598 	 1.37391 	 
H 	 -134.133 	 2.41788 	 0.675564 	 
H 	 -133.299 	 2.88722 	 2.14025 	 
C 	 -133.332 	 4.46387 	 0.623304 	 
H 	 -132.374 	 4.22385 	 0.143083 	 
H 	 -133.093 	 5.25603 	 1.34031 	 
H 	 -134.001 	 4.87686 	 -0.143166 	 
H 	 -138.656 	 7.35393 	 -1.37101 	 
H 	 -134.648 	 5.90508 	 5.88022 	 
