34

S 	 -41.993 	 -49.9974 	 -69.7418 	 
C 	 -40.6105 	 -49.041 	 -69.1471 	 
C 	 -39.5523 	 -49.922 	 -68.8284 	 
C 	 -39.8382 	 -51.2935 	 -69.2345 	 
C 	 -41.1089 	 -51.5028 	 -69.8329 	 
H 	 -39.2105 	 -52.1339 	 -69.2394 	 
C 	 -38.3226 	 -49.5371 	 -68.1095 	 
H 	 -38.168 	 -48.5201 	 -68.0704 	 
H 	 -37.4081 	 -49.9332 	 -68.5947 	 
C 	 -38.3841 	 -49.9912 	 -66.6738 	 
H 	 -38.6272 	 -51.074 	 -66.7724 	 
H 	 -37.4455 	 -49.9208 	 -66.1664 	 
C 	 -39.4377 	 -49.2226 	 -65.8261 	 
H 	 -40.4833 	 -49.1536 	 -66.2388 	 
H 	 -39.4892 	 -49.6321 	 -64.8158 	 
H 	 -39.1625 	 -48.1784 	 -65.7577 	 
S 	 -42.5057 	 -52.7117 	 -71.7879 	 
C 	 -42.4972 	 -54.4193 	 -71.9427 	 
C 	 -42.0161 	 -55.0564 	 -70.8258 	 
C 	 -41.3522 	 -54.1062 	 -69.9618 	 
C 	 -41.6694 	 -52.777 	 -70.3108 	 
H 	 -41.9936 	 -56.1406 	 -70.6378 	 
C 	 -40.6032 	 -54.7002 	 -68.7359 	 
H 	 -41.3078 	 -55.3855 	 -68.211 	 
H 	 -40.467 	 -53.9096 	 -67.9827 	 
C 	 -39.2592 	 -55.3658 	 -69.0489 	 
H 	 -38.6028 	 -54.5765 	 -69.4794 	 
H 	 -39.2912 	 -56.151 	 -69.7397 	 
C 	 -38.6114 	 -56.1726 	 -67.8946 	 
H 	 -37.6148 	 -56.46 	 -68.0764 	 
H 	 -39.1128 	 -57.0964 	 -67.7351 	 
H 	 -38.5771 	 -55.5692 	 -66.9351 	 
H 	 -40.7435 	 -48.071 	 -68.6435 	 
H 	 -42.9511 	 -54.8832 	 -72.8002 	 
