34

S 	 -36.6744 	 19.031 	 11.7567 	 
C 	 -36.869 	 17.8618 	 12.9436 	 
C 	 -37.1141 	 18.4777 	 14.1906 	 
C 	 -37.1699 	 19.8681 	 14.1956 	 
C 	 -37.0492 	 20.3886 	 12.8997 	 
H 	 -37.3527 	 20.5925 	 14.9874 	 
C 	 -37.4196 	 17.6727 	 15.463 	 
H 	 -36.7236 	 18.0646 	 16.2256 	 
H 	 -37.2254 	 16.5694 	 15.3269 	 
C 	 -38.7351 	 18.0308 	 16.0904 	 
H 	 -38.5917 	 18.892 	 16.7892 	 
H 	 -39.4038 	 18.5103 	 15.3219 	 
C 	 -39.3879 	 16.8356 	 16.7764 	 
H 	 -40.0022 	 17.0174 	 17.6681 	 
H 	 -39.9237 	 16.2603 	 16.0627 	 
H 	 -38.5627 	 16.2244 	 17.1793 	 
S 	 -37.6891 	 21.9086 	 10.6823 	 
C 	 -37.5986 	 23.6744 	 10.7987 	 
C 	 -37.0671 	 24.0974 	 12.0326 	 
C 	 -36.7752 	 22.9998 	 12.9058 	 
C 	 -37.1352 	 21.7604 	 12.376 	 
H 	 -37.0172 	 25.1328 	 12.2791 	 
C 	 -36.2471 	 23.2297 	 14.2568 	 
H 	 -35.327 	 23.8319 	 14.2619 	 
H 	 -36.0696 	 22.2478 	 14.6745 	 
C 	 -37.2566 	 24.0536 	 15.0714 	 
H 	 -37.3474 	 25.1306 	 14.6274 	 
H 	 -36.8689 	 24.0596 	 16.0965 	 
C 	 -38.6904 	 23.4396 	 15.181 	 
H 	 -39.2349 	 24.0061 	 15.9588 	 
H 	 -38.6003 	 22.3761 	 15.5004 	 
H 	 -39.2688 	 23.4489 	 14.3784 	 
H 	 -36.7761 	 16.7993 	 12.7853 	 
H 	 -37.9738 	 24.341 	 10.015 	 
