34

S 	 -102.65 	 11.6396 	 -123.796 	 
C 	 -104.05 	 12.5611 	 -124.154 	 
C 	 -103.786 	 13.9026 	 -124.276 	 
C 	 -102.407 	 14.146 	 -123.952 	 
C 	 -101.68 	 13.0564 	 -123.614 	 
H 	 -101.956 	 15.1262 	 -123.887 	 
C 	 -104.772 	 14.9421 	 -124.718 	 
H 	 -105.81 	 14.4962 	 -124.775 	 
H 	 -104.396 	 15.362 	 -125.685 	 
C 	 -104.897 	 16.108 	 -123.662 	 
H 	 -103.954 	 16.6498 	 -123.423 	 
H 	 -105.531 	 16.8401 	 -124.125 	 
C 	 -105.401 	 15.5918 	 -122.254 	 
H 	 -105.445 	 16.4172 	 -121.544 	 
H 	 -106.364 	 15.1364 	 -122.338 	 
H 	 -104.789 	 14.795 	 -121.789 	 
S 	 -99.1101 	 12.6762 	 -124.669 	 
C 	 -97.8307 	 13.0371 	 -123.617 	 
C 	 -98.219 	 13.5028 	 -122.387 	 
C 	 -99.5878 	 13.4088 	 -122.237 	 
C 	 -100.267 	 12.9313 	 -123.363 	 
H 	 -97.5122 	 13.6002 	 -121.571 	 
C 	 -100.351 	 13.9517 	 -120.961 	 
H 	 -101.391 	 13.6036 	 -121.186 	 
H 	 -100.413 	 15.0184 	 -121.07 	 
C 	 -99.9095 	 13.3694 	 -119.613 	 
H 	 -100.404 	 13.8476 	 -118.778 	 
H 	 -98.8468 	 13.4441 	 -119.523 	 
C 	 -100.358 	 11.9004 	 -119.577 	 
H 	 -99.6767 	 11.3398 	 -120.269 	 
H 	 -101.396 	 11.7416 	 -119.991 	 
H 	 -100.36 	 11.4839 	 -118.616 	 
H 	 -105.028 	 12.1286 	 -124.298 	 
H 	 -96.8367 	 12.9156 	 -123.905 	 
