34

S 	 -77.6972 	 -19.1315 	 -52.554 	 
C 	 -78.4252 	 -19.9803 	 -51.2163 	 
C 	 -78.9819 	 -19.1154 	 -50.2502 	 
C 	 -78.9964 	 -17.7691 	 -50.7298 	 
C 	 -78.3618 	 -17.5982 	 -51.9505 	 
H 	 -79.4527 	 -16.9194 	 -50.3199 	 
C 	 -79.7774 	 -19.6565 	 -49.0819 	 
H 	 -79.4113 	 -20.7348 	 -49.033 	 
H 	 -80.8997 	 -19.6678 	 -49.2927 	 
C 	 -79.5756 	 -19.1771 	 -47.6537 	 
H 	 -80.0235 	 -19.9135 	 -46.9896 	 
H 	 -78.5575 	 -19.3184 	 -47.4053 	 
C 	 -80.0378 	 -17.7183 	 -47.5482 	 
H 	 -80.9461 	 -17.5408 	 -48.0779 	 
H 	 -80.0627 	 -17.452 	 -46.4851 	 
H 	 -79.2964 	 -17.0699 	 -48.0205 	 
S 	 -78.5248 	 -16.6177 	 -54.5148 	 
C 	 -78.3641 	 -14.918 	 -54.6899 	 
C 	 -78.0808 	 -14.2187 	 -53.5139 	 
C 	 -77.9759 	 -15.0582 	 -52.354 	 
C 	 -78.2671 	 -16.397 	 -52.7593 	 
H 	 -77.7866 	 -13.1891 	 -53.581 	 
C 	 -77.5541 	 -14.539 	 -50.9695 	 
H 	 -76.6395 	 -13.8853 	 -51.0463 	 
H 	 -77.2404 	 -15.3547 	 -50.3093 	 
C 	 -78.6568 	 -13.7477 	 -50.3029 	 
H 	 -79.5961 	 -14.2536 	 -50.3703 	 
H 	 -78.8707 	 -12.8238 	 -50.8525 	 
C 	 -78.299 	 -13.56 	 -48.7984 	 
H 	 -77.4055 	 -12.9196 	 -48.8279 	 
H 	 -78.1067 	 -14.4841 	 -48.2198 	 
H 	 -79.1369 	 -13.0718 	 -48.3263 	 
H 	 -78.4934 	 -21.06 	 -51.1133 	 
H 	 -78.4035 	 -14.4665 	 -55.6663 	 
