34

S 	 -86.7788 	 -33.0191 	 -67.1218 	 
C 	 -86.5381 	 -34.3136 	 -68.2563 	 
C 	 -87.7714 	 -34.8571 	 -68.7123 	 
C 	 -88.8726 	 -34.0961 	 -68.226 	 
C 	 -88.4825 	 -33.0378 	 -67.4435 	 
H 	 -89.9087 	 -34.4671 	 -68.334 	 
C 	 -87.7727 	 -36.1526 	 -69.4917 	 
H 	 -88.2205 	 -36.95 	 -68.9267 	 
H 	 -86.6566 	 -36.321 	 -69.6524 	 
C 	 -88.4924 	 -36.0241 	 -70.8592 	 
H 	 -89.5746 	 -36.0362 	 -70.6394 	 
H 	 -88.3049 	 -35.0775 	 -71.3572 	 
C 	 -88.1489 	 -37.2495 	 -71.6833 	 
H 	 -88.0134 	 -38.213 	 -71.189 	 
H 	 -88.8525 	 -37.3475 	 -72.5281 	 
H 	 -87.2345 	 -37.0664 	 -72.1959 	 
S 	 -89.1453 	 -31.5427 	 -65.2093 	 
C 	 -90.7289 	 -30.9145 	 -64.9996 	 
C 	 -91.3987 	 -31.0143 	 -66.2112 	 
C 	 -90.7779 	 -31.8581 	 -67.179 	 
C 	 -89.507 	 -32.1906 	 -66.7997 	 
H 	 -92.3724 	 -30.6269 	 -66.2763 	 
C 	 -91.5549 	 -32.1226 	 -68.4851 	 
H 	 -92.6652 	 -32.1674 	 -68.3575 	 
H 	 -91.447 	 -33.2008 	 -68.8771 	 
C 	 -91.1772 	 -31.0633 	 -69.6081 	 
H 	 -91.4213 	 -30.0749 	 -69.2633 	 
H 	 -91.7403 	 -31.106 	 -70.4932 	 
C 	 -89.7227 	 -31.029 	 -70.0818 	 
H 	 -89.4775 	 -30.2001 	 -70.7135 	 
H 	 -89.4348 	 -31.829 	 -70.6386 	 
H 	 -88.9655 	 -30.8847 	 -69.3084 	 
H 	 -85.5776 	 -34.6415 	 -68.5406 	 
H 	 -91.1126 	 -30.2948 	 -64.1827 	 
