34

S 	 -63.9115 	 15.8924 	 -88.2744 	 
C 	 -65.0782 	 17.1184 	 -87.8371 	 
C 	 -66.0958 	 16.6662 	 -86.9375 	 
C 	 -65.7403 	 15.339 	 -86.5161 	 
C 	 -64.622 	 14.8173 	 -87.045 	 
H 	 -66.3562 	 14.761 	 -85.8435 	 
C 	 -67.3739 	 17.3479 	 -86.5702 	 
H 	 -67.5327 	 18.2098 	 -87.2503 	 
H 	 -67.2058 	 17.7226 	 -85.5394 	 
C 	 -68.6469 	 16.5205 	 -86.6019 	 
H 	 -68.4738 	 15.6602 	 -86.075 	 
H 	 -69.4614 	 17.1251 	 -86.1567 	 
C 	 -69.056 	 16.0489 	 -87.9802 	 
H 	 -70.006 	 15.5114 	 -88.0749 	 
H 	 -69.1584 	 17.0162 	 -88.507 	 
H 	 -68.1779 	 15.5711 	 -88.3985 	 
S 	 -64.4763 	 12.2562 	 -88.1632 	 
C 	 -63.4979 	 11.0845 	 -87.383 	 
C 	 -62.8116 	 11.518 	 -86.3104 	 
C 	 -63.2011 	 12.8346 	 -85.9159 	 
C 	 -64.0923 	 13.4392 	 -86.8498 	 
H 	 -62.097 	 10.8401 	 -85.8434 	 
C 	 -62.5677 	 13.5426 	 -84.769 	 
H 	 -62.3826 	 12.8309 	 -83.9268 	 
H 	 -63.3042 	 14.2728 	 -84.3018 	 
C 	 -61.3031 	 14.2089 	 -85.1681 	 
H 	 -61.6799 	 14.7869 	 -86.0342 	 
H 	 -60.5718 	 13.531 	 -85.4689 	 
C 	 -60.7501 	 15.0794 	 -84.099 	 
H 	 -60.2775 	 14.5467 	 -83.2843 	 
H 	 -61.4597 	 15.801 	 -83.6713 	 
H 	 -59.9809 	 15.7206 	 -84.4675 	 
H 	 -65.0956 	 18.1336 	 -88.2629 	 
H 	 -63.3761 	 10.1064 	 -87.6772 	 
