34

S 	 -146.149 	 28.0395 	 -13.6005 	 
C 	 -147.203 	 27.8002 	 -14.9728 	 
C 	 -147.169 	 28.9556 	 -15.8058 	 
C 	 -146.353 	 29.9873 	 -15.3207 	 
C 	 -145.886 	 29.7061 	 -14.0326 	 
H 	 -146.225 	 30.9128 	 -15.8173 	 
C 	 -147.712 	 29.0567 	 -17.2736 	 
H 	 -147.756 	 28.0113 	 -17.6724 	 
H 	 -146.971 	 29.6097 	 -17.8955 	 
C 	 -148.965 	 29.9225 	 -17.4793 	 
H 	 -149.876 	 29.4652 	 -17.0886 	 
H 	 -148.762 	 30.8065 	 -16.8889 	 
C 	 -149.189 	 30.2674 	 -18.9198 	 
H 	 -148.295 	 30.8088 	 -19.2275 	 
H 	 -149.393 	 29.3719 	 -19.5283 	 
H 	 -150.01 	 30.9462 	 -19.1356 	 
S 	 -144.652 	 29.7269 	 -11.6259 	 
C 	 -144.229 	 31.2141 	 -10.8489 	 
C 	 -144.458 	 32.3032 	 -11.6685 	 
C 	 -144.981 	 31.9416 	 -12.9234 	 
C 	 -145.178 	 30.5723 	 -13.0751 	 
H 	 -144.263 	 33.2806 	 -11.3086 	 
C 	 -145.34 	 32.9771 	 -13.9867 	 
H 	 -145.505 	 33.9568 	 -13.4237 	 
H 	 -146.43 	 32.8149 	 -14.2999 	 
C 	 -144.447 	 33.262 	 -15.2143 	 
H 	 -145.024 	 33.9219 	 -15.9316 	 
H 	 -144.151 	 32.3358 	 -15.6776 	 
C 	 -143.164 	 33.9391 	 -14.7247 	 
H 	 -142.557 	 34.1111 	 -15.5478 	 
H 	 -142.582 	 33.4648 	 -13.9736 	 
H 	 -143.531 	 34.8768 	 -14.2045 	 
H 	 -147.684 	 26.872 	 -15.2913 	 
H 	 -143.811 	 31.2475 	 -9.78976 	 
