34

S 	 -19.4436 	 -34.6776 	 -92.2156 	 
C 	 -18.3333 	 -35.128 	 -93.4662 	 
C 	 -18.5503 	 -34.4129 	 -94.6499 	 
C 	 -19.4959 	 -33.2928 	 -94.4434 	 
C 	 -20.0773 	 -33.3721 	 -93.1944 	 
H 	 -19.8086 	 -32.4678 	 -95.074 	 
C 	 -17.8688 	 -34.5887 	 -95.9455 	 
H 	 -18.614 	 -34.6095 	 -96.69 	 
H 	 -17.4467 	 -35.6011 	 -96.0219 	 
C 	 -16.8147 	 -33.4697 	 -96.244 	 
H 	 -17.3254 	 -32.5878 	 -96.4457 	 
H 	 -16.2122 	 -33.314 	 -95.349 	 
C 	 -15.982 	 -33.8294 	 -97.4758 	 
H 	 -16.5841 	 -34.2903 	 -98.19 	 
H 	 -15.4385 	 -32.9595 	 -97.8002 	 
H 	 -15.2457 	 -34.6178 	 -97.2335 	 
S 	 -22.7245 	 -33.531 	 -93.0576 	 
C 	 -23.7236 	 -32.1979 	 -92.7234 	 
C 	 -22.9351 	 -31.0816 	 -92.581 	 
C 	 -21.5674 	 -31.2995 	 -92.8607 	 
C 	 -21.2976 	 -32.6351 	 -92.7777 	 
H 	 -23.4525 	 -30.1096 	 -92.469 	 
C 	 -20.568 	 -30.1916 	 -92.9009 	 
H 	 -19.5814 	 -30.5826 	 -92.6483 	 
H 	 -20.8068 	 -29.5511 	 -92.023 	 
C 	 -20.4818 	 -29.2517 	 -94.1152 	 
H 	 -19.9169 	 -28.4092 	 -93.7594 	 
H 	 -21.4951 	 -28.8142 	 -94.1948 	 
C 	 -20.0287 	 -29.7883 	 -95.4775 	 
H 	 -19.0052 	 -30.1782 	 -95.4564 	 
H 	 -20.0303 	 -28.9788 	 -96.2257 	 
H 	 -20.7127 	 -30.5118 	 -95.8476 	 
H 	 -17.6652 	 -35.8705 	 -93.2961 	 
H 	 -24.6791 	 -32.3108 	 -92.2911 	 
