34

S 	 -130.705 	 25.5321 	 -16.029 	 
C 	 -131.079 	 23.923 	 -16.7212 	 
C 	 -132.344 	 23.4906 	 -16.4001 	 
C 	 -132.981 	 24.3618 	 -15.4687 	 
C 	 -132.307 	 25.508 	 -15.3428 	 
H 	 -133.989 	 24.2716 	 -15.0028 	 
C 	 -132.942 	 22.2758 	 -16.9395 	 
H 	 -132.278 	 21.8086 	 -17.7119 	 
H 	 -133.851 	 22.5729 	 -17.4659 	 
C 	 -133.311 	 21.3107 	 -15.9055 	 
H 	 -133.949 	 21.7372 	 -15.0687 	 
H 	 -133.87 	 20.5052 	 -16.3598 	 
C 	 -132.12 	 20.683 	 -15.2183 	 
H 	 -131.403 	 20.2048 	 -15.8929 	 
H 	 -131.522 	 21.3975 	 -14.6322 	 
H 	 -132.521 	 19.9302 	 -14.526 	 
S 	 -131.73 	 26.9936 	 -13.0973 	 
C 	 -132.755 	 28.2736 	 -12.5589 	 
C 	 -133.774 	 28.4216 	 -13.4724 	 
C 	 -133.776 	 27.5224 	 -14.6119 	 
C 	 -132.739 	 26.5883 	 -14.4827 	 
H 	 -134.41 	 29.2124 	 -13.2563 	 
C 	 -134.838 	 27.6034 	 -15.7135 	 
H 	 -134.388 	 27.309 	 -16.6605 	 
H 	 -135.176 	 28.6621 	 -15.7315 	 
C 	 -136.077 	 26.687 	 -15.3247 	 
H 	 -136.446 	 26.9251 	 -14.3356 	 
H 	 -135.89 	 25.6231 	 -15.4092 	 
C 	 -137.337 	 27.0082 	 -16.0867 	 
H 	 -138.153 	 26.4444 	 -15.6875 	 
H 	 -137.185 	 26.6406 	 -17.1713 	 
H 	 -137.668 	 28.0049 	 -16.1265 	 
H 	 -130.517 	 23.4524 	 -17.5231 	 
H 	 -132.628 	 28.9126 	 -11.6427 	 
