34

S 	 -125.052 	 59.6205 	 -58.0088 	 
C 	 -123.834 	 60.7795 	 -58.2639 	 
C 	 -123.916 	 61.8079 	 -57.3006 	 
C 	 -125.051 	 61.7076 	 -56.4638 	 
C 	 -125.862 	 60.6471 	 -56.8483 	 
H 	 -125.391 	 62.4582 	 -55.7286 	 
C 	 -122.915 	 62.9196 	 -57.2125 	 
H 	 -122.222 	 62.7972 	 -58.0487 	 
H 	 -122.337 	 62.812 	 -56.3184 	 
C 	 -123.519 	 64.3458 	 -57.2825 	 
H 	 -124.036 	 64.3969 	 -58.2593 	 
H 	 -124.356 	 64.467 	 -56.6419 	 
C 	 -122.526 	 65.5099 	 -57.0398 	 
H 	 -121.825 	 65.3453 	 -56.1505 	 
H 	 -121.868 	 65.7164 	 -57.8963 	 
H 	 -123.118 	 66.4309 	 -56.9278 	 
S 	 -128.378 	 61.3479 	 -57.3674 	 
C 	 -129.596 	 61.3507 	 -56.1539 	 
C 	 -129.116 	 60.6697 	 -55.0407 	 
C 	 -127.736 	 60.2015 	 -55.139 	 
C 	 -127.204 	 60.3911 	 -56.4378 	 
H 	 -129.786 	 60.7221 	 -54.1999 	 
C 	 -126.93 	 59.7145 	 -53.9917 	 
H 	 -127.523 	 59.8905 	 -53.1451 	 
H 	 -125.97 	 60.3279 	 -53.9938 	 
C 	 -126.567 	 58.2458 	 -54.1397 	 
H 	 -125.893 	 57.9617 	 -54.9835 	 
H 	 -127.476 	 57.747 	 -54.3697 	 
C 	 -125.908 	 57.7149 	 -52.8375 	 
H 	 -125.641 	 56.6489 	 -53.0099 	 
H 	 -126.647 	 57.8448 	 -51.9757 	 
H 	 -124.946 	 58.3241 	 -52.6637 	 
H 	 -123.112 	 60.7808 	 -59.0347 	 
H 	 -130.533 	 61.9041 	 -56.2182 	 
