34

S 	 -121.473 	 34.6087 	 -114.861 	 
C 	 -120.318 	 34.1933 	 -116.195 	 
C 	 -119.02 	 33.987 	 -115.767 	 
C 	 -118.924 	 34.2866 	 -114.362 	 
C 	 -120.13 	 34.5352 	 -113.733 	 
H 	 -117.987 	 34.3066 	 -113.728 	 
C 	 -117.875 	 33.7249 	 -116.659 	 
H 	 -117.046 	 34.3549 	 -116.337 	 
H 	 -118.119 	 33.9319 	 -117.701 	 
C 	 -117.408 	 32.2467 	 -116.637 	 
H 	 -117.194 	 31.8494 	 -115.669 	 
H 	 -118.352 	 31.7178 	 -116.872 	 
C 	 -116.252 	 31.9464 	 -117.659 	 
H 	 -115.299 	 31.9182 	 -117.091 	 
H 	 -116.34 	 31.0083 	 -118.137 	 
H 	 -116.109 	 32.6881 	 -118.478 	 
S 	 -120.773 	 33.2019 	 -111.424 	 
C 	 -120.759 	 34.0814 	 -109.86 	 
C 	 -120.593 	 35.4373 	 -110.135 	 
C 	 -120.374 	 35.7542 	 -111.514 	 
C 	 -120.466 	 34.6769 	 -112.319 	 
H 	 -120.67 	 36.1925 	 -109.375 	 
C 	 -119.925 	 37.1845 	 -111.879 	 
H 	 -119.789 	 37.2425 	 -112.933 	 
H 	 -118.906 	 37.4018 	 -111.419 	 
C 	 -120.886 	 38.2665 	 -111.4 	 
H 	 -121.057 	 38.3123 	 -110.411 	 
H 	 -121.88 	 38.075 	 -111.833 	 
C 	 -120.385 	 39.6098 	 -111.924 	 
H 	 -119.545 	 39.8304 	 -111.26 	 
H 	 -121.082 	 40.4073 	 -111.673 	 
H 	 -120.1 	 39.5825 	 -112.977 	 
H 	 -120.654 	 34.0817 	 -117.196 	 
H 	 -120.873 	 33.6197 	 -108.901 	 
