34

S 	 -88.0619 	 51.4449 	 -98.5469 	 
C 	 -87.6379 	 50.2326 	 -97.4264 	 
C 	 -88.7644 	 49.7561 	 -96.7361 	 
C 	 -89.9581 	 50.3142 	 -97.3129 	 
C 	 -89.7369 	 51.4318 	 -98.1622 	 
H 	 -90.9706 	 50.029 	 -97.0585 	 
C 	 -88.7784 	 48.7008 	 -95.6897 	 
H 	 -87.7686 	 48.2565 	 -95.6769 	 
H 	 -89.4834 	 47.8587 	 -95.9451 	 
C 	 -89.2184 	 49.2304 	 -94.3052 	 
H 	 -88.3541 	 49.7322 	 -93.9553 	 
H 	 -89.9618 	 49.9197 	 -94.4864 	 
C 	 -89.6158 	 48.2026 	 -93.2481 	 
H 	 -90.394 	 47.6526 	 -93.6229 	 
H 	 -88.7588 	 47.5561 	 -93.017 	 
H 	 -89.9237 	 48.7863 	 -92.3342 	 
S 	 -90.5531 	 52.6751 	 -100.518 	 
C 	 -92.0978 	 53.4169 	 -100.469 	 
C 	 -92.744 	 53.3042 	 -99.3021 	 
C 	 -92.0258 	 52.6187 	 -98.3355 	 
C 	 -90.7674 	 52.2079 	 -98.8158 	 
H 	 -93.7304 	 53.6423 	 -99.0772 	 
C 	 -92.5428 	 52.3007 	 -96.8977 	 
H 	 -91.6568 	 52.052 	 -96.2037 	 
H 	 -93.1093 	 51.356 	 -96.9398 	 
C 	 -93.2951 	 53.3885 	 -96.1558 	 
H 	 -94.024 	 53.9378 	 -96.798 	 
H 	 -92.6013 	 54.1474 	 -95.718 	 
C 	 -93.8563 	 52.8384 	 -94.861 	 
H 	 -94.6322 	 52.0436 	 -95.104 	 
H 	 -94.422 	 53.6313 	 -94.3525 	 
H 	 -93.0792 	 52.2539 	 -94.2393 	 
H 	 -86.7025 	 49.8664 	 -97.1977 	 
H 	 -92.6699 	 53.881 	 -101.324 	 
