34

S 	 -114.109 	 57.1644 	 -90.0046 	 
C 	 -112.822 	 57.4941 	 -88.9151 	 
C 	 -111.909 	 58.3634 	 -89.4455 	 
C 	 -112.337 	 58.9095 	 -90.7287 	 
C 	 -113.423 	 58.1281 	 -91.2234 	 
H 	 -111.802 	 59.6764 	 -91.1861 	 
C 	 -110.715 	 58.932 	 -88.673 	 
H 	 -109.811 	 59.0635 	 -89.2756 	 
H 	 -110.454 	 58.1902 	 -87.9145 	 
C 	 -111.011 	 60.3261 	 -88.1192 	 
H 	 -110.337 	 60.5383 	 -87.2794 	 
H 	 -110.717 	 61.1172 	 -88.8589 	 
C 	 -112.488 	 60.5699 	 -87.7569 	 
H 	 -113.203 	 60.469 	 -88.6052 	 
H 	 -112.757 	 59.8193 	 -86.9681 	 
H 	 -112.463 	 61.5331 	 -87.3043 	 
S 	 -115.338 	 59.3068 	 -92.7422 	 
C 	 -115.522 	 58.9679 	 -94.4473 	 
C 	 -114.42 	 58.181 	 -94.8572 	 
C 	 -113.471 	 57.9184 	 -93.7789 	 
C 	 -113.924 	 58.3433 	 -92.5577 	 
H 	 -114.377 	 57.7916 	 -95.8382 	 
C 	 -112.318 	 56.981 	 -93.9188 	 
H 	 -112.46 	 56.3812 	 -94.7883 	 
H 	 -112.166 	 56.3542 	 -93.0175 	 
C 	 -110.864 	 57.6366 	 -94.1332 	 
H 	 -110.675 	 58.3551 	 -93.3918 	 
H 	 -110.75 	 58.1338 	 -95.0917 	 
C 	 -109.713 	 56.6231 	 -94.1313 	 
H 	 -108.731 	 57.1324 	 -94.081 	 
H 	 -109.647 	 55.9543 	 -94.9601 	 
H 	 -109.83 	 55.9412 	 -93.3 	 
H 	 -112.761 	 57.1491 	 -87.8869 	 
H 	 -116.395 	 59.1259 	 -95.0395 	 
