34

S 	 -147.868 	 6.41334 	 9.15153 	 
C 	 -147.171 	 4.8517 	 9.0659 	 
C 	 -147.915 	 4.01524 	 8.24865 	 
C 	 -149.049 	 4.63277 	 7.67535 	 
C 	 -149.062 	 6.01938 	 7.96533 	 
H 	 -149.773 	 4.25243 	 7.02232 	 
C 	 -147.589 	 2.62581 	 7.76289 	 
H 	 -146.618 	 2.53737 	 7.38006 	 
H 	 -148.286 	 2.44452 	 6.93121 	 
C 	 -147.636 	 1.51353 	 8.81447 	 
H 	 -147.077 	 1.71658 	 9.77204 	 
H 	 -148.696 	 1.40404 	 8.98415 	 
C 	 -147.197 	 0.117119 	 8.24161 	 
H 	 -147.703 	 -0.319562 	 7.36999 	 
H 	 -146.159 	 0.103445 	 7.95356 	 
H 	 -147.197 	 -0.710799 	 8.98922 	 
S 	 -150.856 	 7.87209 	 8.65386 	 
C 	 -152.202 	 8.23907 	 7.67804 	 
C 	 -152.18 	 7.57464 	 6.49543 	 
C 	 -150.918 	 6.87577 	 6.32009 	 
C 	 -150.126 	 6.87709 	 7.48532 	 
H 	 -152.949 	 7.68743 	 5.74102 	 
C 	 -150.574 	 6.32578 	 4.93769 	 
H 	 -151.452 	 6.38176 	 4.27256 	 
H 	 -150.218 	 5.322 	 5.00656 	 
C 	 -149.549 	 7.20958 	 4.25173 	 
H 	 -148.801 	 7.55308 	 4.92397 	 
H 	 -150.012 	 8.16257 	 4.06375 	 
C 	 -148.876 	 6.70539 	 2.95272 	 
H 	 -147.936 	 7.25395 	 2.75657 	 
H 	 -149.603 	 6.75011 	 2.18575 	 
H 	 -148.659 	 5.65058 	 3.09665 	 
H 	 -146.43 	 4.47554 	 9.72639 	 
H 	 -153.192 	 8.64623 	 8.05271 	 
