34

S 	 44.1231 	 -18.5057 	 -110.274 	 
C 	 45.7771 	 -17.7585 	 -110.492 	 
C 	 46.6224 	 -17.9797 	 -109.396 	 
C 	 46.0042 	 -18.873 	 -108.458 	 
C 	 44.6964 	 -19.1692 	 -108.761 	 
H 	 46.3983 	 -19.248 	 -107.588 	 
C 	 47.9728 	 -17.2966 	 -109.257 	 
H 	 48.4435 	 -17.3942 	 -108.26 	 
H 	 47.6215 	 -16.2581 	 -109.337 	 
C 	 49.0296 	 -17.6529 	 -110.335 	 
H 	 48.6554 	 -17.2609 	 -111.258 	 
H 	 49.9129 	 -17.1194 	 -110.041 	 
C 	 49.3552 	 -19.1963 	 -110.357 	 
H 	 49.9863 	 -19.6442 	 -109.556 	 
H 	 48.42 	 -19.8009 	 -110.417 	 
H 	 49.8775 	 -19.4214 	 -111.276 	 
S 	 42.1861 	 -19.2304 	 -107.594 	 
C 	 41.725 	 -20.762 	 -106.884 	 
C 	 42.7163 	 -21.6838 	 -106.892 	 
C 	 43.8887 	 -21.2269 	 -107.574 	 
C 	 43.6876 	 -19.9677 	 -108.026 	 
H 	 42.5414 	 -22.7118 	 -106.587 	 
C 	 45.1171 	 -22.1662 	 -107.768 	 
H 	 45.4394 	 -22.5024 	 -106.817 	 
H 	 45.9366 	 -21.611 	 -108.198 	 
C 	 44.829 	 -23.4205 	 -108.675 	 
H 	 44.1453 	 -24.1368 	 -108.203 	 
H 	 45.7418 	 -23.9942 	 -108.708 	 
C 	 44.3688 	 -23.1396 	 -110.143 	 
H 	 45.2658 	 -22.7746 	 -110.799 	 
H 	 43.773 	 -22.2392 	 -110.115 	 
H 	 43.9699 	 -23.9187 	 -110.771 	 
H 	 45.9546 	 -17.0874 	 -111.371 	 
H 	 40.7564 	 -21.0096 	 -106.69 	 
