34

S 	 -108.747 	 57.7558 	 -102.359 	 
C 	 -110.275 	 56.8861 	 -102.638 	 
C 	 -110.694 	 56.2744 	 -101.519 	 
C 	 -109.761 	 56.5033 	 -100.384 	 
C 	 -108.582 	 57.09 	 -100.755 	 
H 	 -109.761 	 55.9914 	 -99.467 	 
C 	 -111.952 	 55.3732 	 -101.515 	 
H 	 -112.169 	 55.1592 	 -100.447 	 
H 	 -111.646 	 54.3788 	 -101.971 	 
C 	 -113.239 	 55.8526 	 -102.169 	 
H 	 -113.457 	 56.828 	 -101.865 	 
H 	 -113.039 	 55.7678 	 -103.219 	 
C 	 -114.446 	 54.9413 	 -101.868 	 
H 	 -114.862 	 54.9793 	 -100.805 	 
H 	 -115.21 	 55.3775 	 -102.483 	 
H 	 -114.272 	 53.9401 	 -102.139 	 
S 	 -107.117 	 56.4483 	 -98.4364 	 
C 	 -105.663 	 57.2688 	 -98.0359 	 
C 	 -105.35 	 58.056 	 -99.0983 	 
C 	 -106.366 	 58.2712 	 -100.097 	 
C 	 -107.433 	 57.3865 	 -99.9317 	 
H 	 -104.49 	 58.6453 	 -99.073 	 
C 	 -106.044 	 59.2948 	 -101.2 	 
H 	 -106.766 	 59.4382 	 -101.99 	 
H 	 -105.234 	 58.8583 	 -101.703 	 
C 	 -105.643 	 60.6945 	 -100.826 	 
H 	 -105.692 	 61.2137 	 -101.726 	 
H 	 -104.616 	 60.7866 	 -100.472 	 
C 	 -106.553 	 61.4533 	 -99.8987 	 
H 	 -106.598 	 62.5021 	 -100.032 	 
H 	 -106.285 	 61.3608 	 -98.889 	 
H 	 -107.612 	 61.2887 	 -100.114 	 
H 	 -110.936 	 56.9842 	 -103.59 	 
H 	 -104.952 	 56.8626 	 -97.3274 	 
