34

S 	 -114.148 	 61.0779 	 -71.3368 	 
C 	 -112.98 	 62.3399 	 -71.306 	 
C 	 -113.543 	 63.5156 	 -71.4636 	 
C 	 -114.977 	 63.431 	 -71.5675 	 
C 	 -115.488 	 62.1711 	 -71.5968 	 
H 	 -115.734 	 64.283 	 -71.6851 	 
C 	 -112.88 	 64.8859 	 -71.4552 	 
H 	 -113.386 	 65.453 	 -70.7702 	 
H 	 -113.022 	 65.3903 	 -72.4073 	 
C 	 -111.402 	 64.9861 	 -71.2146 	 
H 	 -111.267 	 65.9873 	 -71.0358 	 
H 	 -111.055 	 64.4128 	 -70.3961 	 
C 	 -110.495 	 64.7129 	 -72.4092 	 
H 	 -110.74 	 63.7516 	 -72.8793 	 
H 	 -110.558 	 65.5016 	 -73.0801 	 
H 	 -109.404 	 64.7084 	 -72.1209 	 
S 	 -118.018 	 62.2927 	 -70.3768 	 
C 	 -119.362 	 61.3268 	 -71.0702 	 
C 	 -119.043 	 60.6878 	 -72.2192 	 
C 	 -117.674 	 61.0526 	 -72.5696 	 
C 	 -116.887 	 61.7898 	 -71.6483 	 
H 	 -119.77 	 60.0542 	 -72.6897 	 
C 	 -117.083 	 60.5877 	 -73.9529 	 
H 	 -116.656 	 59.5936 	 -73.7208 	 
H 	 -116.213 	 61.1822 	 -74.1258 	 
C 	 -117.913 	 60.7588 	 -75.2509 	 
H 	 -118.257 	 61.7336 	 -75.4222 	 
H 	 -118.77 	 60.1094 	 -75.1462 	 
C 	 -117.059 	 60.2908 	 -76.4804 	 
H 	 -116.135 	 60.8207 	 -76.5593 	 
H 	 -117.721 	 60.376 	 -77.3546 	 
H 	 -116.708 	 59.2225 	 -76.4025 	 
H 	 -112.003 	 62.1658 	 -70.9477 	 
H 	 -120.349 	 61.4217 	 -70.6488 	 
