34

S 	 -44.5556 	 12.8573 	 36.2064 	 
C 	 -43.0085 	 12.1308 	 36.543 	 
C 	 -42.3719 	 11.7799 	 35.3651 	 
C 	 -43.0806 	 12.2556 	 34.1982 	 
C 	 -44.2369 	 12.9407 	 34.4631 	 
H 	 -42.8834 	 12.0854 	 33.1403 	 
C 	 -40.9432 	 11.151 	 35.2134 	 
H 	 -40.9972 	 10.2568 	 34.5781 	 
H 	 -40.6705 	 10.7412 	 36.1459 	 
C 	 -39.8032 	 12.0594 	 34.768 	 
H 	 -39.464 	 11.7626 	 33.8012 	 
H 	 -40.3032 	 13.0051 	 34.5825 	 
C 	 -38.6617 	 12.3224 	 35.7584 	 
H 	 -39.2668 	 12.4181 	 36.6885 	 
H 	 -37.9716 	 11.4634 	 35.8678 	 
H 	 -38.214 	 13.3051 	 35.702 	 
S 	 -46.6487 	 12.3405 	 33.3435 	 
C 	 -47.3428 	 13.3031 	 32.0962 	 
C 	 -46.5522 	 14.3975 	 31.8547 	 
C 	 -45.2915 	 14.3956 	 32.5616 	 
C 	 -45.2775 	 13.3976 	 33.552 	 
H 	 -46.8641 	 15.1381 	 31.158 	 
C 	 -44.1745 	 15.5198 	 32.5201 	 
H 	 -43.4537 	 15.299 	 33.3192 	 
H 	 -44.6351 	 16.474 	 32.8858 	 
C 	 -43.4901 	 15.8018 	 31.1928 	 
H 	 -42.9217 	 16.7495 	 31.2276 	 
H 	 -44.2658 	 15.8912 	 30.3852 	 
C 	 -42.5067 	 14.7066 	 30.7265 	 
H 	 -41.9542 	 14.3173 	 31.618 	 
H 	 -41.8635 	 15.0014 	 29.8799 	 
H 	 -43.0903 	 13.8719 	 30.2753 	 
H 	 -42.4907 	 12.06 	 37.4834 	 
H 	 -48.1972 	 13.015 	 31.4848 	 
