34

S 	 -82.4295 	 -15.9127 	 -50.5096 	 
C 	 -84.1125 	 -15.6186 	 -50.5741 	 
C 	 -84.7915 	 -16.678 	 -51.1551 	 
C 	 -83.8654 	 -17.7706 	 -51.3064 	 
C 	 -82.5533 	 -17.5418 	 -51.0077 	 
H 	 -84.1703 	 -18.7251 	 -51.7344 	 
C 	 -86.2962 	 -16.764 	 -51.3317 	 
H 	 -86.4218 	 -17.6544 	 -51.9205 	 
H 	 -86.5753 	 -15.9138 	 -51.964 	 
C 	 -87.0796 	 -16.6627 	 -50.0039 	 
H 	 -86.907 	 -17.6233 	 -49.5396 	 
H 	 -86.6646 	 -15.8591 	 -49.4086 	 
C 	 -88.5364 	 -16.4512 	 -50.3931 	 
H 	 -88.8712 	 -17.3362 	 -50.8389 	 
H 	 -89.1771 	 -16.442 	 -49.5335 	 
H 	 -88.7546 	 -15.5876 	 -51.0233 	 
S 	 -81.1099 	 -19.5676 	 -49.8939 	 
C 	 -79.8059 	 -20.3034 	 -50.7673 	 
C 	 -79.5827 	 -19.7192 	 -51.9845 	 
C 	 -80.4866 	 -18.6008 	 -52.2175 	 
C 	 -81.4545 	 -18.4538 	 -51.2107 	 
H 	 -78.9558 	 -20.162 	 -52.5707 	 
C 	 -80.4647 	 -17.8008 	 -53.524 	 
H 	 -80.7204 	 -16.7859 	 -53.0776 	 
H 	 -81.3959 	 -18.031 	 -54.0994 	 
C 	 -79.243 	 -17.7145 	 -54.424 	 
H 	 -79.0309 	 -18.7324 	 -54.777 	 
H 	 -78.385 	 -17.4404 	 -53.8538 	 
C 	 -79.4011 	 -16.8118 	 -55.6856 	 
H 	 -79.5905 	 -15.7682 	 -55.3596 	 
H 	 -80.1213 	 -17.1283 	 -56.4191 	 
H 	 -78.4302 	 -17.0035 	 -56.152 	 
H 	 -84.5489 	 -14.6582 	 -50.2529 	 
H 	 -79.2806 	 -21.1987 	 -50.4095 	 
