34

S 	 -108.249 	 1.52507 	 -109.238 	 
C 	 -108.212 	 2.89452 	 -110.305 	 
C 	 -106.943 	 3.27889 	 -110.663 	 
C 	 -105.969 	 2.33266 	 -110.215 	 
C 	 -106.516 	 1.32008 	 -109.389 	 
H 	 -104.92 	 2.42814 	 -110.39 	 
C 	 -106.567 	 4.42358 	 -111.581 	 
H 	 -107.073 	 4.12586 	 -112.532 	 
H 	 -105.461 	 4.49464 	 -111.669 	 
C 	 -107.069 	 5.8265 	 -111.077 	 
H 	 -107.161 	 6.44341 	 -111.993 	 
H 	 -108.085 	 5.76196 	 -110.825 	 
C 	 -106.288 	 6.53558 	 -110.016 	 
H 	 -106.295 	 5.95285 	 -109.085 	 
H 	 -105.275 	 6.62208 	 -110.348 	 
H 	 -106.891 	 7.41803 	 -109.715 	 
S 	 -106.287 	 0.0221363 	 -107.033 	 
C 	 -105.274 	 -1.49561 	 -107.005 	 
C 	 -104.422 	 -1.48977 	 -108.054 	 
C 	 -104.718 	 -0.479951 	 -109.053 	 
C 	 -105.805 	 0.307773 	 -108.689 	 
H 	 -103.664 	 -2.19949 	 -108.165 	 
C 	 -104.019 	 -0.432609 	 -110.395 	 
H 	 -104.22 	 0.560853 	 -110.879 	 
H 	 -104.515 	 -1.22802 	 -110.956 	 
C 	 -102.476 	 -0.829518 	 -110.311 	 
H 	 -102.133 	 -1.21373 	 -111.266 	 
H 	 -102.23 	 -1.65555 	 -109.705 	 
C 	 -101.566 	 0.298208 	 -109.733 	 
H 	 -101.824 	 1.36172 	 -109.973 	 
H 	 -100.527 	 0.0801626 	 -110.023 	 
H 	 -101.425 	 0.273198 	 -108.723 	 
H 	 -109.046 	 3.42522 	 -110.732 	 
H 	 -105.247 	 -2.27499 	 -106.33 	 
