34

S 	 -16.914 	 -28.9811 	 -97.3362 	 
C 	 -16.0289 	 -28.9766 	 -98.889 	 
C 	 -16.3136 	 -29.963 	 -99.7555 	 
C 	 -17.4223 	 -30.6718 	 -99.2242 	 
C 	 -17.9546 	 -30.1871 	 -98.0503 	 
H 	 -17.9092 	 -31.5308 	 -99.6173 	 
C 	 -15.6771 	 -30.2362 	 -101.068 	 
H 	 -15.2189 	 -31.1586 	 -101.026 	 
H 	 -14.917 	 -29.4858 	 -101.319 	 
C 	 -16.5654 	 -30.3138 	 -102.283 	 
H 	 -15.9894 	 -30.4224 	 -103.179 	 
H 	 -17.2259 	 -31.1467 	 -102.296 	 
C 	 -17.3863 	 -29.0985 	 -102.556 	 
H 	 -17.9271 	 -29.1192 	 -103.459 	 
H 	 -18.1155 	 -28.9552 	 -101.732 	 
H 	 -16.7698 	 -28.2689 	 -102.71 	 
S 	 -19.0796 	 -30.3972 	 -95.5658 	 
C 	 -20.807 	 -30.8274 	 -95.415 	 
C 	 -21.3208 	 -31.1671 	 -96.669 	 
C 	 -20.4166 	 -31.008 	 -97.7474 	 
C 	 -19.1724 	 -30.5866 	 -97.3013 	 
H 	 -22.3246 	 -31.3623 	 -96.5207 	 
C 	 -20.8733 	 -31.1647 	 -99.1582 	 
H 	 -21.0088 	 -32.2915 	 -99.1986 	 
H 	 -20.0581 	 -30.9151 	 -99.8503 	 
C 	 -22.2083 	 -30.4371 	 -99.4913 	 
H 	 -23.0948 	 -30.5976 	 -98.8559 	 
H 	 -22.4676 	 -30.6654 	 -100.48 	 
C 	 -22.2453 	 -28.8724 	 -99.5414 	 
H 	 -21.8465 	 -28.4796 	 -98.6411 	 
H 	 -23.1955 	 -28.4322 	 -99.7862 	 
H 	 -21.6163 	 -28.5867 	 -100.352 	 
H 	 -15.2462 	 -28.2495 	 -99.1856 	 
H 	 -21.3382 	 -30.8719 	 -94.4638 	 
