34

S 	 -108.633 	 -0.323077 	 -108.546 	 
C 	 -108.704 	 1.21973 	 -107.733 	 
C 	 -107.716 	 2.02584 	 -108.16 	 
C 	 -106.857 	 1.43538 	 -109.051 	 
C 	 -107.195 	 0.120822 	 -109.405 	 
H 	 -105.854 	 1.76691 	 -109.466 	 
C 	 -107.432 	 3.31097 	 -107.525 	 
H 	 -108.384 	 3.85352 	 -107.391 	 
H 	 -106.866 	 3.86269 	 -108.226 	 
C 	 -106.596 	 3.27737 	 -106.186 	 
H 	 -106.179 	 4.26433 	 -105.977 	 
H 	 -107.197 	 3.05562 	 -105.346 	 
C 	 -105.369 	 2.31559 	 -106.13 	 
H 	 -104.867 	 2.11925 	 -105.153 	 
H 	 -105.701 	 1.30594 	 -106.352 	 
H 	 -104.567 	 2.60241 	 -106.73 	 
S 	 -104.776 	 -1.22866 	 -109.546 	 
C 	 -104.232 	 -2.08155 	 -111.037 	 
C 	 -105.199 	 -2.14015 	 -111.969 	 
C 	 -106.377 	 -1.44439 	 -111.473 	 
C 	 -106.312 	 -0.809417 	 -110.226 	 
H 	 -104.977 	 -2.51228 	 -112.921 	 
C 	 -107.582 	 -1.40332 	 -112.4 	 
H 	 -108.378 	 -1.15177 	 -111.675 	 
H 	 -107.78 	 -2.3964 	 -112.689 	 
C 	 -107.468 	 -0.624843 	 -113.674 	 
H 	 -108.335 	 -0.859879 	 -114.316 	 
H 	 -106.566 	 -0.949297 	 -114.174 	 
C 	 -107.216 	 0.864301 	 -113.394 	 
H 	 -107.48 	 1.33458 	 -114.365 	 
H 	 -106.138 	 1.00142 	 -113.244 	 
H 	 -107.816 	 1.18359 	 -112.513 	 
H 	 -109.184 	 1.37993 	 -106.849 	 
H 	 -103.216 	 -2.40303 	 -111.15 	 
