34

S 	 -147.38 	 30.9679 	 -16.5134 	 
C 	 -146.357 	 29.529 	 -16.7478 	 
C 	 -146.327 	 28.7406 	 -15.6361 	 
C 	 -146.993 	 29.3728 	 -14.5519 	 
C 	 -147.53 	 30.6786 	 -14.7848 	 
H 	 -147.226 	 28.872 	 -13.6036 	 
C 	 -145.867 	 27.2989 	 -15.5085 	 
H 	 -146.808 	 26.7917 	 -15.3798 	 
H 	 -145.264 	 27.3067 	 -14.5407 	 
C 	 -145.096 	 26.7797 	 -16.7351 	 
H 	 -145.566 	 27.0605 	 -17.7052 	 
H 	 -144.124 	 27.1995 	 -16.7507 	 
C 	 -144.903 	 25.223 	 -16.662 	 
H 	 -143.996 	 24.985 	 -17.13 	 
H 	 -144.885 	 24.7507 	 -15.6652 	 
H 	 -145.618 	 24.6208 	 -17.2288 	 
S 	 -149.788 	 32.3002 	 -14.5826 	 
C 	 -150.406 	 32.6051 	 -13.0333 	 
C 	 -149.551 	 32.2045 	 -12.0276 	 
C 	 -148.377 	 31.575 	 -12.536 	 
C 	 -148.375 	 31.4764 	 -13.9217 	 
H 	 -149.77 	 32.3591 	 -11.0485 	 
C 	 -147.268 	 31.0283 	 -11.6456 	 
H 	 -146.31 	 31.3157 	 -12.0556 	 
H 	 -147.367 	 29.9809 	 -11.6625 	 
C 	 -147.31 	 31.3224 	 -10.0813 	 
H 	 -146.704 	 30.6683 	 -9.5009 	 
H 	 -148.369 	 31.1509 	 -9.65399 	 
C 	 -146.879 	 32.7273 	 -9.66653 	 
H 	 -145.875 	 32.8108 	 -9.92594 	 
H 	 -146.856 	 32.8385 	 -8.59567 	 
H 	 -147.46 	 33.6438 	 -10.0498 	 
H 	 -146.049 	 29.1524 	 -17.6898 	 
H 	 -151.364 	 33.0622 	 -12.8703 	 
