34

S 	 -114.611 	 58.1546 	 -71.4688 	 
C 	 -112.898 	 57.5933 	 -71.5968 	 
C 	 -112.074 	 58.4666 	 -72.2638 	 
C 	 -112.919 	 59.512 	 -72.8268 	 
C 	 -114.25 	 59.3107 	 -72.7971 	 
H 	 -112.651 	 60.3278 	 -73.434 	 
C 	 -110.63 	 58.2278 	 -72.5869 	 
H 	 -110.648 	 57.6592 	 -73.51 	 
H 	 -110.379 	 57.5268 	 -71.8063 	 
C 	 -109.743 	 59.4316 	 -72.4431 	 
H 	 -108.784 	 59.1343 	 -72.7173 	 
H 	 -109.911 	 60.2397 	 -73.1223 	 
C 	 -109.52 	 60.1231 	 -71.0782 	 
H 	 -109.036 	 61.0702 	 -71.1824 	 
H 	 -110.43 	 60.584 	 -70.7494 	 
H 	 -108.949 	 59.5233 	 -70.295 	 
S 	 -116.506 	 60.7532 	 -72.4513 	 
C 	 -117.251 	 61.6399 	 -73.7176 	 
C 	 -116.492 	 61.5559 	 -74.8427 	 
C 	 -115.237 	 60.8478 	 -74.6111 	 
C 	 -115.243 	 60.1609 	 -73.3921 	 
H 	 -116.826 	 62.0984 	 -75.6998 	 
C 	 -114.213 	 60.7467 	 -75.7411 	 
H 	 -113.217 	 61.0593 	 -75.3466 	 
H 	 -114.508 	 61.4617 	 -76.476 	 
C 	 -114.15 	 59.4126 	 -76.3832 	 
H 	 -113.956 	 58.6955 	 -75.6337 	 
H 	 -113.274 	 59.2479 	 -77.0649 	 
C 	 -115.492 	 58.9401 	 -77.0082 	 
H 	 -116.274 	 58.8788 	 -76.2056 	 
H 	 -115.324 	 57.9589 	 -77.408 	 
H 	 -115.852 	 59.7081 	 -77.7717 	 
H 	 -112.457 	 56.6989 	 -71.0848 	 
H 	 -118.171 	 62.1462 	 -73.6675 	 
