34

S 	 -89.5166 	 -30.4885 	 -56.218 	 
C 	 -87.8116 	 -30.6738 	 -56.6329 	 
C 	 -87.0184 	 -30.0168 	 -55.7421 	 
C 	 -87.7322 	 -29.2591 	 -54.7689 	 
C 	 -89.1109 	 -29.3973 	 -54.9189 	 
H 	 -87.4239 	 -28.5852 	 -53.8998 	 
C 	 -85.5335 	 -30.1517 	 -55.7988 	 
H 	 -85.0766 	 -29.1866 	 -55.9741 	 
H 	 -85.2031 	 -30.9577 	 -56.4708 	 
C 	 -84.9318 	 -30.6797 	 -54.5357 	 
H 	 -85.2028 	 -29.9472 	 -53.7741 	 
H 	 -85.4488 	 -31.6156 	 -54.3229 	 
C 	 -83.406 	 -30.8349 	 -54.5235 	 
H 	 -82.9116 	 -30.9672 	 -53.5522 	 
H 	 -83.1908 	 -31.7686 	 -55.0768 	 
H 	 -82.9864 	 -30.0158 	 -55.007 	 
S 	 -90.9647 	 -27.4036 	 -55.0936 	 
C 	 -91.9304 	 -27.0086 	 -53.6261 	 
C 	 -91.5532 	 -27.7774 	 -52.5662 	 
C 	 -90.4155 	 -28.6076 	 -52.908 	 
C 	 -90.1529 	 -28.6892 	 -54.2558 	 
H 	 -91.9886 	 -27.692 	 -51.5777 	 
C 	 -89.8056 	 -29.5465 	 -51.9276 	 
H 	 -89.3247 	 -28.9209 	 -51.1416 	 
H 	 -89.0939 	 -30.1635 	 -52.3508 	 
C 	 -90.7583 	 -30.6035 	 -51.3117 	 
H 	 -91.317 	 -31.0963 	 -52.0893 	 
H 	 -91.5241 	 -30.1778 	 -50.6885 	 
C 	 -89.9265 	 -31.6324 	 -50.5064 	 
H 	 -90.5385 	 -32.297 	 -49.9448 	 
H 	 -89.3544 	 -31.1245 	 -49.7808 	 
H 	 -89.4077 	 -32.1718 	 -51.2506 	 
H 	 -87.5436 	 -31.4897 	 -57.2713 	 
H 	 -92.7303 	 -26.289 	 -53.5087 	 
