34

S 	 -44.1208 	 8.91033 	 29.3943 	 
C 	 -43.8045 	 10.404 	 28.5832 	 
C 	 -44.5758 	 10.5463 	 27.4785 	 
C 	 -45.3122 	 9.37403 	 27.196 	 
C 	 -45.2771 	 8.41429 	 28.1746 	 
H 	 -45.9662 	 9.26693 	 26.2654 	 
C 	 -44.7134 	 11.7716 	 26.5729 	 
H 	 -44.1024 	 12.5311 	 27.1467 	 
H 	 -45.8133 	 12.0425 	 26.498 	 
C 	 -44.1795 	 11.5344 	 25.1302 	 
H 	 -44.7024 	 10.6326 	 24.7558 	 
H 	 -44.3083 	 12.2903 	 24.3372 	 
C 	 -42.6388 	 11.1861 	 25.1849 	 
H 	 -42.2918 	 11.0802 	 26.1792 	 
H 	 -42.3447 	 10.3252 	 24.5535 	 
H 	 -42.0787 	 12.0351 	 24.6844 	 
S 	 -45.0258 	 5.71026 	 28.745 	 
C 	 -46.4683 	 4.74461 	 28.7116 	 
C 	 -47.5781 	 5.3562 	 28.1198 	 
C 	 -47.2921 	 6.73434 	 27.8247 	 
C 	 -45.9727 	 7.08301 	 28.1509 	 
H 	 -48.5627 	 4.81358 	 28.2095 	 
C 	 -48.2602 	 7.70643 	 27.2252 	 
H 	 -48.9916 	 7.22001 	 26.5702 	 
H 	 -47.7156 	 8.28827 	 26.5347 	 
C 	 -49.0912 	 8.61945 	 28.2466 	 
H 	 -49.3857 	 9.50932 	 27.6992 	 
H 	 -48.4255 	 8.87874 	 29.0848 	 
C 	 -50.2867 	 7.85367 	 28.925 	 
H 	 -50.9392 	 8.51798 	 29.4261 	 
H 	 -49.9643 	 6.9702 	 29.5339 	 
H 	 -51.0121 	 7.43239 	 28.2601 	 
H 	 -43.2874 	 11.2444 	 29.0279 	 
H 	 -46.4692 	 3.71617 	 29.1054 	 
