34

S 	 -46.1966 	 29.1188 	 29.4663 	 
C 	 -47.1868 	 29.968 	 28.3037 	 
C 	 -48.5106 	 29.7022 	 28.4319 	 
C 	 -48.7462 	 28.7641 	 29.4578 	 
C 	 -47.6236 	 28.2513 	 30.0725 	 
H 	 -49.7719 	 28.3846 	 29.7326 	 
C 	 -49.6151 	 30.3133 	 27.5975 	 
H 	 -49.7547 	 31.331 	 27.9261 	 
H 	 -50.4753 	 29.701 	 27.8744 	 
C 	 -49.5503 	 30.1315 	 26.1056 	 
H 	 -50.5313 	 30.6629 	 25.7582 	 
H 	 -48.6712 	 30.5633 	 25.6565 	 
C 	 -49.6772 	 28.6865 	 25.6857 	 
H 	 -49.035 	 27.9185 	 26.1461 	 
H 	 -50.6912 	 28.4079 	 25.8447 	 
H 	 -49.5509 	 28.6135 	 24.6198 	 
S 	 -47.6391 	 25.5466 	 30.7807 	 
C 	 -47.1857 	 25.1241 	 32.4206 	 
C 	 -47.0787 	 26.2764 	 33.2061 	 
C 	 -47.1244 	 27.4804 	 32.4749 	 
C 	 -47.6091 	 27.2841 	 31.1762 	 
H 	 -46.7977 	 26.2348 	 34.2594 	 
C 	 -46.8624 	 28.8507 	 33.1197 	 
H 	 -47.6664 	 29.1682 	 33.8572 	 
H 	 -46.8741 	 29.6155 	 32.3419 	 
C 	 -45.4791 	 28.9724 	 33.8634 	 
H 	 -44.7616 	 29.3081 	 33.1056 	 
H 	 -45.1163 	 27.9285 	 34.0936 	 
C 	 -45.5687 	 29.9068 	 35.139 	 
H 	 -44.6683 	 30.0074 	 35.7395 	 
H 	 -46.3585 	 29.6428 	 35.8067 	 
H 	 -45.7336 	 30.9421 	 34.792 	 
H 	 -46.6459 	 30.7102 	 27.6908 	 
H 	 -47.1299 	 24.1026 	 32.859 	 
