34

S 	 -102.463 	 0.0724905 	 -106.325 	 
C 	 -100.88 	 -0.237573 	 -106.936 	 
C 	 -99.8599 	 0.307118 	 -106.173 	 
C 	 -100.41 	 0.843668 	 -105.005 	 
C 	 -101.789 	 0.812972 	 -104.936 	 
H 	 -99.9096 	 1.43479 	 -104.242 	 
C 	 -98.3821 	 0.282221 	 -106.554 	 
H 	 -97.8936 	 0.996455 	 -105.921 	 
H 	 -98.282 	 0.649105 	 -107.557 	 
C 	 -97.6117 	 -1.04127 	 -106.404 	 
H 	 -97.8168 	 -1.39751 	 -105.395 	 
H 	 -98.007 	 -1.84228 	 -107.02 	 
C 	 -96.0714 	 -0.831629 	 -106.662 	 
H 	 -95.4531 	 -1.78144 	 -106.489 	 
H 	 -95.9804 	 -0.550561 	 -107.75 	 
H 	 -95.6321 	 -0.0746149 	 -106.043 	 
S 	 -103.314 	 3.03347 	 -104.522 	 
C 	 -104.235 	 3.13242 	 -103.056 	 
C 	 -103.927 	 2.16061 	 -102.162 	 
C 	 -103.07 	 1.14704 	 -102.678 	 
C 	 -102.592 	 1.49705 	 -103.922 	 
H 	 -104.321 	 2.15765 	 -101.161 	 
C 	 -102.695 	 0.00253847 	 -101.834 	 
H 	 -102.528 	 -0.829341 	 -102.535 	 
H 	 -103.463 	 -0.280403 	 -101.182 	 
C 	 -101.533 	 0.18504 	 -100.87 	 
H 	 -101.623 	 1.04595 	 -100.194 	 
H 	 -100.613 	 0.47895 	 -101.54 	 
C 	 -101.037 	 -1.10599 	 -100.261 	 
H 	 -100.383 	 -1.73018 	 -100.935 	 
H 	 -101.841 	 -1.737 	 -99.8594 	 
H 	 -100.417 	 -0.865787 	 -99.344 	 
H 	 -100.77 	 -0.667397 	 -107.951 	 
H 	 -105.083 	 3.8424 	 -102.759 	 
