34

S 	 -48.822 	 16.2803 	 23.7166 	 
C 	 -49.9695 	 16.5018 	 25.0619 	 
C 	 -51.0689 	 15.7196 	 24.8004 	 
C 	 -51.1379 	 15.2923 	 23.4408 	 
C 	 -50.0636 	 15.5869 	 22.6964 	 
H 	 -52.0168 	 14.854 	 23.0782 	 
C 	 -52.0777 	 15.3855 	 25.8255 	 
H 	 -53.0286 	 15.5025 	 25.4185 	 
H 	 -52.0556 	 16.0422 	 26.6766 	 
C 	 -52.0264 	 13.9691 	 26.4271 	 
H 	 -51.2279 	 13.9054 	 27.1115 	 
H 	 -52.9252 	 13.8049 	 27.0631 	 
C 	 -52.0253 	 12.7745 	 25.4068 	 
H 	 -52.2374 	 11.8966 	 25.9367 	 
H 	 -52.8733 	 12.8207 	 24.6547 	 
H 	 -51.0685 	 12.8504 	 24.9034 	 
S 	 -49.1735 	 14.2815 	 20.5807 	 
C 	 -49.111 	 15.0581 	 18.9847 	 
C 	 -49.6671 	 16.3256 	 19.0283 	 
C 	 -50.1257 	 16.685 	 20.3476 	 
C 	 -49.9227 	 15.6491 	 21.2562 	 
H 	 -49.7214 	 17.0032 	 18.1997 	 
C 	 -50.7989 	 17.9614 	 20.6573 	 
H 	 -51.4823 	 17.7884 	 21.4729 	 
H 	 -51.3666 	 18.2951 	 19.7892 	 
C 	 -49.8018 	 19.1192 	 21.0399 	 
H 	 -49.0992 	 19.2283 	 20.1728 	 
H 	 -49.2939 	 18.8295 	 21.9692 	 
C 	 -50.461 	 20.4408 	 21.2866 	 
H 	 -49.6922 	 21.1898 	 21.4578 	 
H 	 -51.1698 	 20.2888 	 22.0349 	 
H 	 -50.9557 	 20.9425 	 20.3786 	 
H 	 -49.5157 	 16.8481 	 26.0559 	 
H 	 -48.7477 	 14.6015 	 18.0331 	 
