34

S 	 -102.139 	 -4.86216 	 -102.7 	 
C 	 -101.626 	 -5.53818 	 -104.163 	 
C 	 -102.315 	 -4.90253 	 -105.186 	 
C 	 -103.165 	 -3.81902 	 -104.75 	 
C 	 -103.275 	 -3.78974 	 -103.416 	 
H 	 -103.754 	 -3.31245 	 -105.487 	 
C 	 -102.152 	 -5.12167 	 -106.671 	 
H 	 -101.373 	 -4.44898 	 -106.988 	 
H 	 -103.033 	 -4.80793 	 -107.144 	 
C 	 -101.718 	 -6.488 	 -107.198 	 
H 	 -100.811 	 -6.77571 	 -106.704 	 
H 	 -102.505 	 -7.10814 	 -106.722 	 
C 	 -101.735 	 -6.69685 	 -108.699 	 
H 	 -102.725 	 -6.4059 	 -109.111 	 
H 	 -101.092 	 -6.02346 	 -109.145 	 
H 	 -101.495 	 -7.72596 	 -108.941 	 
S 	 -103.506 	 -1.82888 	 -101.521 	 
C 	 -105.091 	 -1.3127 	 -101.052 	 
C 	 -106.128 	 -1.82697 	 -101.778 	 
C 	 -105.615 	 -2.75142 	 -102.746 	 
C 	 -104.243 	 -2.96741 	 -102.668 	 
H 	 -107.122 	 -1.56046 	 -101.538 	 
C 	 -106.586 	 -3.53339 	 -103.64 	 
H 	 -107.431 	 -3.82921 	 -103.054 	 
H 	 -106.225 	 -4.55925 	 -103.848 	 
C 	 -107.032 	 -2.94478 	 -104.974 	 
H 	 -106.284 	 -2.9862 	 -105.703 	 
H 	 -107.372 	 -1.90185 	 -104.822 	 
C 	 -108.278 	 -3.67055 	 -105.456 	 
H 	 -108.561 	 -3.20953 	 -106.354 	 
H 	 -109.094 	 -3.52609 	 -104.758 	 
H 	 -108.237 	 -4.77821 	 -105.521 	 
H 	 -100.907 	 -6.3921 	 -104.289 	 
H 	 -105.329 	 -0.801277 	 -100.137 	 
