34

S 	 -89.7921 	 51.44 	 -95.7639 	 
C 	 -90.6075 	 50.5627 	 -94.3934 	 
C 	 -91.9288 	 50.3411 	 -94.7677 	 
C 	 -92.291 	 50.8713 	 -96.0525 	 
C 	 -91.2958 	 51.5416 	 -96.6801 	 
H 	 -93.2549 	 50.6363 	 -96.4337 	 
C 	 -92.8484 	 49.4682 	 -93.9318 	 
H 	 -92.2296 	 49.1723 	 -93.0966 	 
H 	 -93.0177 	 48.7742 	 -94.7259 	 
C 	 -94.0955 	 50.2619 	 -93.3255 	 
H 	 -93.8014 	 50.7773 	 -92.45 	 
H 	 -94.391 	 51.0399 	 -94.0265 	 
C 	 -95.2624 	 49.3277 	 -92.9599 	 
H 	 -95.5633 	 48.8747 	 -93.8671 	 
H 	 -94.9797 	 48.5589 	 -92.2282 	 
H 	 -96.0354 	 49.9667 	 -92.4703 	 
S 	 -89.9165 	 51.3082 	 -99.1245 	 
C 	 -90.7336 	 51.943 	 -100.564 	 
C 	 -91.905 	 52.5225 	 -100.277 	 
C 	 -92.267 	 52.5406 	 -98.8902 	 
C 	 -91.2054 	 51.9605 	 -98.0957 	 
H 	 -92.4632 	 52.9076 	 -101.153 	 
C 	 -93.623 	 52.7583 	 -98.3261 	 
H 	 -93.4836 	 52.6446 	 -97.2022 	 
H 	 -94.2965 	 51.9207 	 -98.5632 	 
C 	 -94.2302 	 54.1802 	 -98.5324 	 
H 	 -94.4049 	 54.381 	 -99.5387 	 
H 	 -93.4289 	 54.895 	 -98.225 	 
C 	 -95.598 	 54.2838 	 -97.7891 	 
H 	 -96.2698 	 53.593 	 -98.257 	 
H 	 -96.1525 	 55.2657 	 -97.7123 	 
H 	 -95.4871 	 54.0333 	 -96.7371 	 
H 	 -90.054 	 50.2318 	 -93.4759 	 
H 	 -90.2813 	 51.8672 	 -101.5 	 
