34

S 	 30.8516 	 -37.4388 	 -127.678 	 
C 	 31.1607 	 -36.4028 	 -126.241 	 
C 	 31.7664 	 -35.2264 	 -126.494 	 
C 	 31.7076 	 -34.9718 	 -127.904 	 
C 	 31.2279 	 -36.0672 	 -128.646 	 
H 	 31.9487 	 -34.0825 	 -128.401 	 
C 	 32.4346 	 -34.34 	 -125.427 	 
H 	 31.8979 	 -34.4687 	 -124.502 	 
H 	 32.3195 	 -33.2677 	 -125.706 	 
C 	 33.936 	 -34.7789 	 -125.256 	 
H 	 34.4615 	 -34.1352 	 -124.606 	 
H 	 34.0207 	 -35.7838 	 -124.924 	 
C 	 34.6903 	 -34.7953 	 -126.611 	 
H 	 35.5484 	 -35.4457 	 -126.43 	 
H 	 34.1726 	 -35.1049 	 -127.46 	 
H 	 35.1082 	 -33.7836 	 -126.809 	 
S 	 29.1658 	 -36.4851 	 -130.383 	 
C 	 29.416 	 -36.2787 	 -132.161 	 
C 	 30.6316 	 -35.8355 	 -132.466 	 
C 	 31.4345 	 -35.6266 	 -131.272 	 
C 	 30.768 	 -35.9849 	 -130.054 	 
H 	 30.8531 	 -35.8275 	 -133.552 	 
C 	 32.8298 	 -35.0536 	 -131.31 	 
H 	 33.1318 	 -34.7814 	 -130.286 	 
H 	 32.6294 	 -34.1218 	 -131.823 	 
C 	 33.9131 	 -35.9106 	 -131.982 	 
H 	 33.6028 	 -36.163 	 -132.994 	 
H 	 34.0393 	 -36.8366 	 -131.432 	 
C 	 35.2819 	 -35.2973 	 -132.141 	 
H 	 35.1363 	 -34.3753 	 -132.631 	 
H 	 35.8401 	 -35.9801 	 -132.805 	 
H 	 35.929 	 -35.1264 	 -131.228 	 
H 	 31.1361 	 -36.8307 	 -125.204 	 
H 	 28.6751 	 -36.5071 	 -132.917 	 
