34

S 	 -76.7336 	 -0.557595 	 -63.0014 	 
C 	 -76.1849 	 1.04118 	 -63.4276 	 
C 	 -77.0808 	 2.04165 	 -62.9611 	 
C 	 -78.0657 	 1.55659 	 -62.0202 	 
C 	 -78.0858 	 0.125576 	 -62.017 	 
H 	 -78.8089 	 2.05344 	 -61.4782 	 
C 	 -76.9657 	 3.55792 	 -63.1452 	 
H 	 -76.1542 	 3.73035 	 -63.7682 	 
H 	 -76.574 	 4.01169 	 -62.2561 	 
C 	 -78.2331 	 4.41985 	 -63.4526 	 
H 	 -78.4882 	 4.14196 	 -64.4718 	 
H 	 -78.9424 	 4.06108 	 -62.7393 	 
C 	 -77.9487 	 5.89773 	 -63.3905 	 
H 	 -77.1828 	 6.13619 	 -64.0336 	 
H 	 -78.7337 	 6.40939 	 -63.8521 	 
H 	 -77.6246 	 6.20491 	 -62.4112 	 
S 	 -78.1174 	 -1.70807 	 -60.0289 	 
C 	 -79.6617 	 -1.96822 	 -59.2189 	 
C 	 -80.7127 	 -1.38352 	 -59.908 	 
C 	 -80.3203 	 -0.664157 	 -61.0897 	 
C 	 -78.9555 	 -0.747951 	 -61.2645 	 
H 	 -81.6922 	 -1.52435 	 -59.4292 	 
C 	 -81.4048 	 0.125713 	 -61.8323 	 
H 	 -80.9763 	 0.617638 	 -62.6929 	 
H 	 -81.8152 	 0.921838 	 -61.1974 	 
C 	 -82.6317 	 -0.653874 	 -62.2562 	 
H 	 -83.3049 	 0.170449 	 -62.5686 	 
H 	 -83.1966 	 -1.183 	 -61.4198 	 
C 	 -82.397 	 -1.58094 	 -63.3803 	 
H 	 -81.6958 	 -2.41858 	 -63.1958 	 
H 	 -81.975 	 -1.00691 	 -64.2193 	 
H 	 -83.2112 	 -2.25549 	 -63.7321 	 
H 	 -75.4486 	 1.31371 	 -64.1095 	 
H 	 -79.745 	 -2.60437 	 -58.289 	 
