34

S 	 -125.802 	 21.4134 	 -19.5731 	 
C 	 -124.158 	 21.3645 	 -18.9905 	 
C 	 -123.181 	 21.6154 	 -19.9201 	 
C 	 -123.777 	 21.894 	 -21.2057 	 
C 	 -125.158 	 21.7364 	 -21.1812 	 
H 	 -123.311 	 22.2622 	 -22.095 	 
C 	 -121.7 	 21.6152 	 -19.7127 	 
H 	 -121.303 	 20.846 	 -20.402 	 
H 	 -121.473 	 21.3627 	 -18.6397 	 
C 	 -120.962 	 22.8933 	 -20.0124 	 
H 	 -121.616 	 23.4243 	 -20.7575 	 
H 	 -121.144 	 23.5393 	 -19.1233 	 
C 	 -119.476 	 22.7341 	 -20.3974 	 
H 	 -119.028 	 21.9834 	 -19.7638 	 
H 	 -119.328 	 22.3385 	 -21.3994 	 
H 	 -118.867 	 23.6143 	 -20.1464 	 
S 	 -127.109 	 23.4106 	 -22.0238 	 
C 	 -127.54 	 23.3411 	 -23.7167 	 
C 	 -126.927 	 22.38 	 -24.4314 	 
C 	 -126.145 	 21.5521 	 -23.55 	 
C 	 -126.046 	 22.027 	 -22.278 	 
H 	 -127.048 	 22.3609 	 -25.4744 	 
C 	 -125.326 	 20.3296 	 -23.9999 	 
H 	 -125.378 	 19.4867 	 -23.295 	 
H 	 -124.327 	 20.6628 	 -24.0448 	 
C 	 -125.664 	 19.6227 	 -25.2628 	 
H 	 -125.583 	 20.4211 	 -26.0586 	 
H 	 -126.632 	 19.3037 	 -25.3766 	 
C 	 -124.684 	 18.4419 	 -25.5157 	 
H 	 -124.96 	 17.7681 	 -26.3062 	 
H 	 -124.751 	 17.7634 	 -24.6611 	 
H 	 -123.592 	 18.6953 	 -25.8377 	 
H 	 -123.834 	 20.9341 	 -18.0438 	 
H 	 -128.117 	 24.1482 	 -24.0907 	 
