34

S 	 -85.8611 	 -44.9572 	 -81.5133 	 
C 	 -86.6632 	 -44.7314 	 -83.0568 	 
C 	 -87.8387 	 -45.4494 	 -83.0191 	 
C 	 -87.9867 	 -46.2297 	 -81.8103 	 
C 	 -87.0452 	 -45.9653 	 -80.8392 	 
H 	 -88.7045 	 -47.0085 	 -81.6183 	 
C 	 -88.8754 	 -45.4129 	 -84.1248 	 
H 	 -89.1622 	 -46.4278 	 -84.4392 	 
H 	 -88.3937 	 -44.926 	 -85.0271 	 
C 	 -90.2396 	 -44.7929 	 -83.6728 	 
H 	 -90.6431 	 -45.4062 	 -82.9386 	 
H 	 -89.9794 	 -43.8991 	 -83.1275 	 
C 	 -91.2921 	 -44.4758 	 -84.7554 	 
H 	 -91.4681 	 -45.2882 	 -85.4976 	 
H 	 -92.2292 	 -44.0844 	 -84.3376 	 
H 	 -90.9131 	 -43.568 	 -85.2602 	 
S 	 -85.5185 	 -47.7638 	 -79.6499 	 
C 	 -86.085 	 -48.6099 	 -78.1641 	 
C 	 -87.33 	 -48.1656 	 -77.9086 	 
C 	 -87.8889 	 -47.1575 	 -78.7089 	 
C 	 -86.915 	 -46.7659 	 -79.663 	 
H 	 -87.8673 	 -48.5224 	 -76.982 	 
C 	 -89.2431 	 -46.5001 	 -78.561 	 
H 	 -90.0001 	 -47.3054 	 -78.543 	 
H 	 -89.5295 	 -45.9924 	 -79.4945 	 
C 	 -89.3784 	 -45.551 	 -77.3364 	 
H 	 -89.0973 	 -46.1177 	 -76.4268 	 
H 	 -90.4286 	 -45.0843 	 -77.3602 	 
C 	 -88.429 	 -44.2646 	 -77.492 	 
H 	 -87.3776 	 -44.5861 	 -77.4778 	 
H 	 -88.4017 	 -43.5915 	 -76.6542 	 
H 	 -88.686 	 -43.6689 	 -78.36 	 
H 	 -86.2548 	 -44.077 	 -83.8261 	 
H 	 -85.5681 	 -49.3409 	 -77.5516 	 
