34

S 	 -131.506 	 27.7604 	 -19.2315 	 
C 	 -132.489 	 27.9641 	 -17.8113 	 
C 	 -131.946 	 27.3497 	 -16.6761 	 
C 	 -130.885 	 26.511 	 -17.1156 	 
C 	 -130.603 	 26.5188 	 -18.4661 	 
H 	 -130.333 	 25.7715 	 -16.518 	 
C 	 -132.577 	 27.3434 	 -15.2909 	 
H 	 -132.129 	 26.5745 	 -14.6858 	 
H 	 -133.622 	 27.0439 	 -15.4126 	 
C 	 -132.396 	 28.6293 	 -14.4778 	 
H 	 -132.612 	 29.5975 	 -15.0432 	 
H 	 -133.127 	 28.6872 	 -13.6881 	 
C 	 -130.978 	 28.7721 	 -13.8439 	 
H 	 -131.09 	 29.4326 	 -12.9488 	 
H 	 -130.577 	 27.8953 	 -13.3407 	 
H 	 -130.22 	 29.2153 	 -14.5721 	 
S 	 -128.101 	 26.5314 	 -19.6361 	 
C 	 -127.304 	 25.0658 	 -20.1751 	 
C 	 -128.264 	 24.0476 	 -20.1067 	 
C 	 -129.507 	 24.371 	 -19.5057 	 
C 	 -129.574 	 25.7315 	 -19.2178 	 
H 	 -127.931 	 23.007 	 -20.2144 	 
C 	 -130.556 	 23.3414 	 -19.0194 	 
H 	 -130.899 	 22.8825 	 -19.9536 	 
H 	 -131.469 	 23.8559 	 -18.5969 	 
C 	 -130.041 	 22.2349 	 -18.0965 	 
H 	 -129.658 	 22.6399 	 -17.1812 	 
H 	 -129.148 	 21.9227 	 -18.596 	 
C 	 -130.885 	 20.9426 	 -17.8881 	 
H 	 -131.435 	 20.7538 	 -18.7967 	 
H 	 -131.689 	 21.1804 	 -17.1004 	 
H 	 -130.214 	 20.0949 	 -17.5895 	 
H 	 -133.292 	 28.6352 	 -17.8325 	 
H 	 -126.327 	 25.1656 	 -20.575 	 
