34

S 	 -123.193 	 66.5338 	 -40.548 	 
C 	 -122.44 	 66.6863 	 -38.8985 	 
C 	 -123.14 	 67.6033 	 -38.113 	 
C 	 -124.306 	 68.1433 	 -38.8156 	 
C 	 -124.515 	 67.5275 	 -40.0515 	 
H 	 -125.033 	 68.868 	 -38.3776 	 
C 	 -122.869 	 67.8592 	 -36.6517 	 
H 	 -122.836 	 68.8663 	 -36.3185 	 
H 	 -121.745 	 67.5806 	 -36.5686 	 
C 	 -123.748 	 67.1194 	 -35.631 	 
H 	 -123.467 	 67.3614 	 -34.6578 	 
H 	 -124.772 	 67.4422 	 -35.7427 	 
C 	 -123.691 	 65.5532 	 -35.6541 	 
H 	 -123.81 	 65.2847 	 -36.6552 	 
H 	 -122.754 	 65.2385 	 -35.2367 	 
H 	 -124.497 	 65.0955 	 -35.0251 	 
S 	 -125.323 	 68.0913 	 -42.6391 	 
C 	 -127.038 	 68.3249 	 -42.9817 	 
C 	 -127.76 	 68.4578 	 -41.8232 	 
C 	 -126.914 	 68.2414 	 -40.6718 	 
C 	 -125.608 	 67.9459 	 -40.969 	 
H 	 -128.83 	 68.6028 	 -41.7681 	 
C 	 -127.512 	 68.2482 	 -39.2379 	 
H 	 -127.648 	 69.3011 	 -39.007 	 
H 	 -126.772 	 67.7894 	 -38.5967 	 
C 	 -128.745 	 67.3587 	 -39.0541 	 
H 	 -128.466 	 66.3115 	 -39.1582 	 
H 	 -129.56 	 67.5073 	 -39.808 	 
C 	 -129.289 	 67.4519 	 -37.6287 	 
H 	 -130.294 	 67.0559 	 -37.7173 	 
H 	 -129.454 	 68.467 	 -37.2498 	 
H 	 -128.691 	 66.7784 	 -36.9859 	 
H 	 -121.57 	 66.143 	 -38.5936 	 
H 	 -127.425 	 68.4207 	 -44.0077 	 
