34

S 	 -81.1594 	 -21.9504 	 -53.4606 	 
C 	 -81.0028 	 -20.8649 	 -52.1255 	 
C 	 -81.155 	 -21.4926 	 -50.9371 	 
C 	 -81.596 	 -22.8454 	 -51.1192 	 
C 	 -81.4993 	 -23.3275 	 -52.4915 	 
H 	 -81.8259 	 -23.5503 	 -50.3655 	 
C 	 -81.1699 	 -20.872 	 -49.579 	 
H 	 -81.639 	 -21.4306 	 -48.7805 	 
H 	 -81.8124 	 -20.0024 	 -49.6309 	 
C 	 -79.6569 	 -20.5266 	 -49.1527 	 
H 	 -79.1488 	 -21.5191 	 -49.1807 	 
H 	 -79.0772 	 -19.8549 	 -49.7413 	 
C 	 -79.6004 	 -19.9114 	 -47.7557 	 
H 	 -78.6744 	 -20.0779 	 -47.2594 	 
H 	 -79.5421 	 -18.8058 	 -47.776 	 
H 	 -80.4702 	 -20.1915 	 -47.0896 	 
S 	 -82.2879 	 -24.8752 	 -54.5743 	 
C 	 -82.444 	 -26.6123 	 -54.4501 	 
C 	 -81.9043 	 -27.0198 	 -53.2644 	 
C 	 -81.5571 	 -25.9482 	 -52.3719 	 
C 	 -81.71 	 -24.7022 	 -52.9456 	 
H 	 -81.8703 	 -28.0524 	 -53.1188 	 
C 	 -81.0347 	 -26.2068 	 -51.0355 	 
H 	 -81.8314 	 -26.1397 	 -50.3247 	 
H 	 -80.2532 	 -25.4871 	 -50.7817 	 
C 	 -80.2559 	 -27.5262 	 -50.7423 	 
H 	 -80.8334 	 -28.4563 	 -50.9829 	 
H 	 -80.095 	 -27.5833 	 -49.647 	 
C 	 -78.9635 	 -27.7234 	 -51.4773 	 
H 	 -79.0963 	 -27.8713 	 -52.5333 	 
H 	 -78.5333 	 -28.63 	 -51.1517 	 
H 	 -78.2643 	 -26.916 	 -51.2447 	 
H 	 -80.7085 	 -19.7737 	 -52.2068 	 
H 	 -82.7737 	 -27.3059 	 -55.1923 	 
