34

S 	 -68.7491 	 20.0191 	 -108.85 	 
C 	 -67.747 	 19.4294 	 -107.565 	 
C 	 -66.471 	 19.1814 	 -107.902 	 
C 	 -66.2952 	 19.5836 	 -109.276 	 
C 	 -67.4249 	 19.9417 	 -109.948 	 
H 	 -65.3164 	 19.5326 	 -109.788 	 
C 	 -65.3882 	 18.7843 	 -107.001 	 
H 	 -64.5593 	 19.3745 	 -107.427 	 
H 	 -65.1753 	 17.8456 	 -107.293 	 
C 	 -65.42 	 19.1193 	 -105.555 	 
H 	 -65.6998 	 20.1774 	 -105.364 	 
H 	 -66.1691 	 18.5543 	 -104.991 	 
C 	 -64.0138 	 18.7942 	 -104.853 	 
H 	 -64.0049 	 19.0166 	 -103.809 	 
H 	 -63.8868 	 17.7057 	 -105.083 	 
H 	 -63.1624 	 19.2553 	 -105.4 	 
S 	 -66.6636 	 21.6727 	 -111.922 	 
C 	 -67.2429 	 21.3098 	 -113.547 	 
C 	 -67.9278 	 20.128 	 -113.684 	 
C 	 -68.0183 	 19.4794 	 -112.383 	 
C 	 -67.5164 	 20.2287 	 -111.377 	 
H 	 -68.2574 	 19.8004 	 -114.655 	 
C 	 -68.733 	 18.1674 	 -112.174 	 
H 	 -69.717 	 18.3953 	 -112.594 	 
H 	 -68.7945 	 18.0188 	 -111.048 	 
C 	 -68.3392 	 16.9417 	 -112.975 	 
H 	 -68.1944 	 17.3353 	 -113.997 	 
H 	 -69.0651 	 16.1734 	 -113.102 	 
C 	 -66.9526 	 16.4354 	 -112.524 	 
H 	 -66.1889 	 17.2094 	 -112.646 	 
H 	 -66.668 	 15.4376 	 -112.843 	 
H 	 -67.1173 	 16.2237 	 -111.465 	 
H 	 -68.0948 	 19.535 	 -106.496 	 
H 	 -66.9637 	 21.8654 	 -114.495 	 
