34

S 	 -35.5549 	 -41.49 	 -77.2412 	 
C 	 -36.2531 	 -39.9218 	 -76.8296 	 
C 	 -37.165 	 -39.5634 	 -77.7793 	 
C 	 -37.4408 	 -40.5436 	 -78.787 	 
C 	 -36.6867 	 -41.7041 	 -78.6071 	 
H 	 -38.0587 	 -40.438 	 -79.6493 	 
C 	 -37.8623 	 -38.2381 	 -77.9371 	 
H 	 -38.8931 	 -38.5484 	 -78.1541 	 
H 	 -37.5733 	 -37.8448 	 -78.8226 	 
C 	 -37.7232 	 -37.2825 	 -76.7819 	 
H 	 -37.8881 	 -37.8435 	 -75.8825 	 
H 	 -36.7383 	 -36.9367 	 -76.6541 	 
C 	 -38.7144 	 -36.1191 	 -76.9855 	 
H 	 -39.6307 	 -36.3752 	 -76.5754 	 
H 	 -38.3381 	 -35.1966 	 -76.5626 	 
H 	 -38.9264 	 -35.873 	 -78.0769 	 
S 	 -34.9142 	 -43.5901 	 -79.6073 	 
C 	 -35.5092 	 -44.9577 	 -80.5174 	 
C 	 -36.8221 	 -44.769 	 -80.8121 	 
C 	 -37.3752 	 -43.5979 	 -80.2118 	 
C 	 -36.4676 	 -42.8514 	 -79.4932 	 
H 	 -37.2408 	 -45.4519 	 -81.5683 	 
C 	 -38.8309 	 -43.3388 	 -80.4417 	 
H 	 -39.0341 	 -43.5393 	 -81.4554 	 
H 	 -39.1009 	 -42.2486 	 -80.4027 	 
C 	 -39.8799 	 -44.0717 	 -79.5515 	 
H 	 -39.4736 	 -44.2833 	 -78.526 	 
H 	 -40.1534 	 -44.9982 	 -79.9309 	 
C 	 -41.1709 	 -43.2574 	 -79.5743 	 
H 	 -42.025 	 -43.7835 	 -79.1708 	 
H 	 -41.2021 	 -42.9257 	 -80.6327 	 
H 	 -41.0977 	 -42.4077 	 -79.0052 	 
H 	 -35.8294 	 -39.3513 	 -76.0452 	 
H 	 -34.9084 	 -45.6711 	 -81.1187 	 
