34

S 	 -37.4448 	 -9.79823 	 21.098 	 
C 	 -36.0463 	 -10.0671 	 22.1975 	 
C 	 -35.4641 	 -11.3055 	 21.9466 	 
C 	 -35.9833 	 -11.9295 	 20.7588 	 
C 	 -36.9836 	 -11.2129 	 20.0937 	 
H 	 -35.6237 	 -12.8648 	 20.3715 	 
C 	 -34.195 	 -11.8145 	 22.6406 	 
H 	 -34.6155 	 -12.5274 	 23.3283 	 
H 	 -33.7618 	 -11.0517 	 23.2273 	 
C 	 -33.1176 	 -12.3816 	 21.654 	 
H 	 -32.2928 	 -12.7488 	 22.2602 	 
H 	 -33.5831 	 -13.1954 	 21.1016 	 
C 	 -32.5619 	 -11.4182 	 20.6789 	 
H 	 -31.7847 	 -11.8012 	 20.088 	 
H 	 -33.3467 	 -11.1406 	 19.9238 	 
H 	 -32.1402 	 -10.5234 	 21.1321 	 
S 	 -39.5519 	 -11.3727 	 19.0365 	 
C 	 -39.7835 	 -12.0369 	 17.4877 	 
C 	 -38.6214 	 -12.4719 	 16.934 	 
C 	 -37.4394 	 -12.1644 	 17.7033 	 
C 	 -37.8213 	 -11.6074 	 18.9315 	 
H 	 -38.6031 	 -12.8299 	 15.9213 	 
C 	 -36.0297 	 -12.5876 	 17.2618 	 
H 	 -36.1344 	 -13.2874 	 16.4181 	 
H 	 -35.6014 	 -13.1795 	 18.0705 	 
C 	 -34.969 	 -11.4423 	 16.9802 	 
H 	 -35.1731 	 -10.5725 	 17.6341 	 
H 	 -35.2468 	 -11.0364 	 16.0277 	 
C 	 -33.4923 	 -11.8575 	 16.9621 	 
H 	 -32.8777 	 -11.0009 	 16.8642 	 
H 	 -33.355 	 -12.5478 	 16.1084 	 
H 	 -33.1652 	 -12.4089 	 17.8536 	 
H 	 -35.6963 	 -9.46337 	 22.9488 	 
H 	 -40.7403 	 -12.22 	 17.028 	 
