34

S 	 -36.9264 	 -12.1119 	 14.8321 	 
C 	 -38.2487 	 -11.4949 	 15.7828 	 
C 	 -38.1974 	 -12.0093 	 17.0351 	 
C 	 -37.0543 	 -12.7629 	 17.2591 	 
C 	 -36.2763 	 -13.0499 	 16.1526 	 
H 	 -36.7006 	 -13.3254 	 18.1314 	 
C 	 -39.2295 	 -11.6441 	 18.0875 	 
H 	 -39.5609 	 -12.565 	 18.5749 	 
H 	 -40.05 	 -11.1734 	 17.4971 	 
C 	 -38.7439 	 -10.723 	 19.1269 	 
H 	 -39.532 	 -10.5713 	 19.8916 	 
H 	 -37.9439 	 -11.1139 	 19.7063 	 
C 	 -38.4844 	 -9.37367 	 18.5465 	 
H 	 -39.3366 	 -8.8526 	 18.175 	 
H 	 -37.9567 	 -8.7882 	 19.3344 	 
H 	 -37.6954 	 -9.33081 	 17.7321 	 
S 	 -35.2874 	 -15.2634 	 14.9808 	 
C 	 -33.584 	 -15.5557 	 15.0785 	 
C 	 -32.9865 	 -14.6768 	 15.8992 	 
C 	 -33.8405 	 -13.7459 	 16.5458 	 
C 	 -35.1212 	 -13.8436 	 15.9882 	 
H 	 -31.9517 	 -14.9605 	 16.1458 	 
C 	 -33.4275 	 -12.7752 	 17.6554 	 
H 	 -32.6663 	 -13.2158 	 18.2522 	 
H 	 -34.2009 	 -12.5824 	 18.4279 	 
C 	 -32.8169 	 -11.5092 	 17.1122 	 
H 	 -33.4812 	 -11.2346 	 16.3249 	 
H 	 -31.8833 	 -11.6132 	 16.5532 	 
C 	 -32.7002 	 -10.3299 	 18.0502 	 
H 	 -31.8352 	 -10.4683 	 18.6779 	 
H 	 -33.5455 	 -10.2611 	 18.7083 	 
H 	 -32.6331 	 -9.41341 	 17.5316 	 
H 	 -38.992 	 -10.8332 	 15.3262 	 
H 	 -33.0067 	 -16.2709 	 14.5259 	 
