34

S 	 -106.141 	 54.3853 	 -10.2172 	 
C 	 -105.472 	 55.3847 	 -11.4641 	 
C 	 -104.66 	 54.6916 	 -12.283 	 
C 	 -104.519 	 53.2953 	 -11.904 	 
C 	 -105.439 	 52.9168 	 -10.9069 	 
H 	 -103.872 	 52.582 	 -12.3417 	 
C 	 -103.808 	 55.3183 	 -13.3516 	 
H 	 -103.156 	 54.5458 	 -13.8641 	 
H 	 -103.058 	 55.9838 	 -12.9093 	 
C 	 -104.541 	 55.7903 	 -14.5508 	 
H 	 -105.121 	 55.0086 	 -14.9584 	 
H 	 -105.208 	 56.583 	 -14.2634 	 
C 	 -103.612 	 56.3245 	 -15.6478 	 
H 	 -104.271 	 56.5831 	 -16.4083 	 
H 	 -102.968 	 57.2372 	 -15.4302 	 
H 	 -102.94 	 55.494 	 -16.0681 	 
S 	 -105.603 	 51.628 	 -8.47404 	 
C 	 -105.265 	 49.9495 	 -8.36404 	 
C 	 -105.247 	 49.3402 	 -9.58393 	 
C 	 -105.396 	 50.3269 	 -10.6712 	 
C 	 -105.469 	 51.6748 	 -10.2102 	 
H 	 -105.188 	 48.297 	 -9.58094 	 
C 	 -105.266 	 49.9513 	 -12.1283 	 
H 	 -105.668 	 50.8612 	 -12.5974 	 
H 	 -105.972 	 49.0794 	 -12.4211 	 
C 	 -103.848 	 49.6258 	 -12.6306 	 
H 	 -103.412 	 48.6482 	 -12.2279 	 
H 	 -103.121 	 50.3834 	 -12.3159 	 
C 	 -103.819 	 49.6332 	 -14.1768 	 
H 	 -102.912 	 49.228 	 -14.5393 	 
H 	 -104.038 	 50.647 	 -14.5246 	 
H 	 -104.542 	 48.9048 	 -14.5922 	 
H 	 -105.472 	 56.4533 	 -11.3406 	 
H 	 -105.282 	 49.5358 	 -7.3599 	 
