34

S 	 -39.5559 	 6.9997 	 28.6407 	 
C 	 -40.7976 	 5.76503 	 28.6817 	 
C 	 -41.7368 	 6.00742 	 29.6755 	 
C 	 -41.4647 	 7.19938 	 30.3839 	 
C 	 -40.3009 	 7.83758 	 29.9912 	 
H 	 -42.0013 	 7.53621 	 31.3142 	 
C 	 -42.9281 	 5.16063 	 30.0128 	 
H 	 -43.349 	 5.39799 	 30.9691 	 
H 	 -42.4196 	 4.25271 	 30.3149 	 
C 	 -44.0667 	 5.01652 	 28.97 	 
H 	 -44.9404 	 5.68556 	 29.0648 	 
H 	 -43.7507 	 5.278 	 27.9875 	 
C 	 -44.7896 	 3.65053 	 29.0006 	 
H 	 -45.3989 	 3.53803 	 28.0791 	 
H 	 -44.118 	 2.86894 	 29.1136 	 
H 	 -45.5516 	 3.65821 	 29.7437 	 
S 	 -40.1656 	 10.6006 	 29.8407 	 
C 	 -39.2582 	 11.4941 	 31.1176 	 
C 	 -38.487 	 10.6214 	 31.837 	 
C 	 -38.7836 	 9.19535 	 31.5648 	 
C 	 -39.7376 	 9.04659 	 30.5602 	 
H 	 -37.783 	 11.0531 	 32.5629 	 
C 	 -38.1772 	 8.03495 	 32.3365 	 
H 	 -37.1298 	 8.07945 	 32.4558 	 
H 	 -38.4009 	 7.09756 	 31.7878 	 
C 	 -38.7006 	 7.85241 	 33.7819 	 
H 	 -38.5938 	 8.74177 	 34.4485 	 
H 	 -38.1383 	 7.02944 	 34.2687 	 
C 	 -40.1261 	 7.31118 	 33.9091 	 
H 	 -40.4373 	 6.58639 	 33.1526 	 
H 	 -40.9707 	 8.03916 	 33.9032 	 
H 	 -40.1826 	 6.78269 	 34.8988 	 
H 	 -40.7495 	 4.83921 	 28.0842 	 
H 	 -39.1669 	 12.5785 	 31.1051 	 
