34

S 	 -34.8754 	 -51.1461 	 -77.4014 	 
C 	 -33.7083 	 -52.2667 	 -76.7263 	 
C 	 -33.0156 	 -51.6667 	 -75.6508 	 
C 	 -33.57 	 -50.4318 	 -75.2833 	 
C 	 -34.5456 	 -49.9848 	 -76.1514 	 
H 	 -33.3739 	 -49.8277 	 -74.4304 	 
C 	 -31.8802 	 -52.3833 	 -74.9282 	 
H 	 -31.9894 	 -53.4862 	 -74.8641 	 
H 	 -31.7845 	 -52.0864 	 -73.8466 	 
C 	 -30.5261 	 -52.2741 	 -75.6811 	 
H 	 -29.6976 	 -52.6947 	 -75.0447 	 
H 	 -30.4956 	 -52.7645 	 -76.6507 	 
C 	 -30.0923 	 -50.7984 	 -75.923 	 
H 	 -30.7521 	 -50.3225 	 -76.5317 	 
H 	 -30.036 	 -50.2218 	 -74.9757 	 
H 	 -29.0907 	 -50.7647 	 -76.4629 	 
S 	 -37.1412 	 -49.2737 	 -75.6629 	 
C 	 -37.5462 	 -47.6799 	 -75.102 	 
C 	 -36.425 	 -46.8649 	 -75.1466 	 
C 	 -35.2357 	 -47.4585 	 -75.6192 	 
C 	 -35.4399 	 -48.8104 	 -75.9293 	 
H 	 -36.4285 	 -45.8352 	 -74.7706 	 
C 	 -33.9391 	 -46.6874 	 -75.6372 	 
H 	 -34.1331 	 -45.6941 	 -76.0831 	 
H 	 -33.2505 	 -47.2438 	 -76.3 	 
C 	 -33.2903 	 -46.4626 	 -74.2083 	 
H 	 -33.4228 	 -47.3188 	 -73.5716 	 
H 	 -33.8053 	 -45.692 	 -73.6236 	 
C 	 -31.7963 	 -46.075 	 -74.2025 	 
H 	 -31.421 	 -45.5204 	 -73.4794 	 
H 	 -31.6723 	 -45.4609 	 -75.133 	 
H 	 -31.1881 	 -46.95 	 -74.298 	 
H 	 -33.5237 	 -53.2661 	 -76.9938 	 
H 	 -38.5212 	 -47.397 	 -74.7887 	 
