34

S 	 -101.877 	 -2.68344 	 -111.133 	 
C 	 -103.435 	 -3.06063 	 -111.774 	 
C 	 -104.437 	 -2.51305 	 -111.003 	 
C 	 -103.942 	 -1.71769 	 -109.956 	 
C 	 -102.58 	 -1.65136 	 -109.887 	 
H 	 -104.653 	 -1.14588 	 -109.314 	 
C 	 -105.925 	 -2.64244 	 -111.229 	 
H 	 -106.139 	 -2.80659 	 -112.278 	 
H 	 -106.354 	 -1.70284 	 -110.947 	 
C 	 -106.672 	 -3.70886 	 -110.475 	 
H 	 -106.247 	 -4.71347 	 -110.521 	 
H 	 -106.514 	 -3.39237 	 -109.381 	 
C 	 -108.201 	 -3.88074 	 -110.701 	 
H 	 -108.509 	 -4.40754 	 -111.669 	 
H 	 -108.516 	 -4.63258 	 -109.948 	 
H 	 -108.751 	 -2.96638 	 -110.511 	 
S 	 -100.227 	 -1.8252 	 -108.324 	 
C 	 -100.082 	 -0.682016 	 -106.982 	 
C 	 -101.143 	 0.158067 	 -106.901 	 
C 	 -102.032 	 0.0380385 	 -107.96 	 
C 	 -101.738 	 -1.06865 	 -108.802 	 
H 	 -101.184 	 0.852321 	 -106.117 	 
C 	 -103.117 	 0.983107 	 -108.27 	 
H 	 -103.978 	 0.623995 	 -107.685 	 
H 	 -103.479 	 0.800306 	 -109.204 	 
C 	 -102.833 	 2.52766 	 -108.269 	 
H 	 -102.318 	 2.85387 	 -107.418 	 
H 	 -103.758 	 3.0387 	 -108.259 	 
C 	 -101.896 	 3.0755 	 -109.404 	 
H 	 -102.296 	 2.85777 	 -110.403 	 
H 	 -100.892 	 2.63562 	 -109.264 	 
H 	 -101.684 	 4.15956 	 -109.405 	 
H 	 -103.557 	 -3.85609 	 -112.505 	 
H 	 -99.314 	 -0.672787 	 -106.239 	 
