34

S 	 -124.75 	 60.298 	 -58.2917 	 
C 	 -124.679 	 61.5077 	 -59.6091 	 
C 	 -125.691 	 62.4334 	 -59.4853 	 
C 	 -126.542 	 62.0962 	 -58.4215 	 
C 	 -126.112 	 61.0787 	 -57.5983 	 
H 	 -127.514 	 62.5571 	 -58.2079 	 
C 	 -125.911 	 63.6535 	 -60.4861 	 
H 	 -125.096 	 64.3043 	 -60.3712 	 
H 	 -126.804 	 64.1653 	 -60.1226 	 
C 	 -126.122 	 63.3255 	 -61.9877 	 
H 	 -125.993 	 64.1984 	 -62.6205 	 
H 	 -125.244 	 62.6321 	 -62.1692 	 
C 	 -127.49 	 62.7661 	 -62.4213 	 
H 	 -128.325 	 63.3416 	 -62.1285 	 
H 	 -127.506 	 62.6785 	 -63.5553 	 
H 	 -127.64 	 61.73 	 -62.0355 	 
S 	 -125.486 	 60.3907 	 -54.98 	 
C 	 -126.745 	 59.7509 	 -53.9431 	 
C 	 -127.953 	 59.9495 	 -54.5572 	 
C 	 -127.916 	 60.337 	 -55.897 	 
C 	 -126.644 	 60.6245 	 -56.3045 	 
H 	 -128.76 	 59.7946 	 -53.8552 	 
C 	 -129.158 	 60.4398 	 -56.7075 	 
H 	 -129.017 	 61.435 	 -57.3311 	 
H 	 -130.088 	 60.5823 	 -56.1358 	 
C 	 -129.412 	 59.1803 	 -57.5795 	 
H 	 -129.68 	 58.4305 	 -56.8168 	 
H 	 -128.53 	 58.8306 	 -58.1021 	 
C 	 -130.694 	 59.3164 	 -58.4377 	 
H 	 -130.505 	 60.0934 	 -59.1823 	 
H 	 -131.522 	 59.6928 	 -57.8888 	 
H 	 -131.077 	 58.354 	 -58.9142 	 
H 	 -123.826 	 61.7581 	 -60.2204 	 
H 	 -126.667 	 59.4918 	 -52.8976 	 
