34

S 	 -56.1395 	 0.206626 	 -28.9529 	 
C 	 -57.6373 	 -0.466506 	 -29.6983 	 
C 	 -57.9802 	 0.135449 	 -30.847 	 
C 	 -57.0303 	 1.14827 	 -31.2566 	 
C 	 -56.0377 	 1.28938 	 -30.3328 	 
H 	 -57.0637 	 1.76856 	 -32.1747 	 
C 	 -59.2154 	 -0.114564 	 -31.6188 	 
H 	 -60.0756 	 0.222961 	 -31.0542 	 
H 	 -59.1752 	 -1.17859 	 -31.8408 	 
C 	 -59.4295 	 0.352576 	 -33.0652 	 
H 	 -60.4051 	 0.0131048 	 -33.2904 	 
H 	 -59.4763 	 1.45306 	 -33.0731 	 
C 	 -58.344 	 -0.24495 	 -33.9723 	 
H 	 -58.2384 	 -1.35941 	 -34.0107 	 
H 	 -58.626 	 0.0104195 	 -34.9742 	 
H 	 -57.3745 	 0.083634 	 -33.718 	 
S 	 -53.2762 	 1.80912 	 -30.3989 	 
C 	 -52.7304 	 3.50434 	 -30.2615 	 
C 	 -53.7248 	 4.40655 	 -30.4856 	 
C 	 -55.006 	 3.76859 	 -30.6383 	 
C 	 -54.9713 	 2.31262 	 -30.454 	 
H 	 -53.5852 	 5.50836 	 -30.47 	 
C 	 -56.2439 	 4.70282 	 -30.6151 	 
H 	 -56.0654 	 5.50585 	 -29.889 	 
H 	 -57.04 	 4.11577 	 -30.2157 	 
C 	 -56.8603 	 5.18389 	 -31.9225 	 
H 	 -57.2765 	 4.38505 	 -32.5677 	 
H 	 -56.1245 	 5.75333 	 -32.4925 	 
C 	 -58.1381 	 6.02768 	 -31.692 	 
H 	 -58.8663 	 5.67767 	 -30.9802 	 
H 	 -58.6206 	 6.12274 	 -32.661 	 
H 	 -57.9862 	 7.05518 	 -31.5208 	 
H 	 -58.1746 	 -1.2583 	 -29.2538 	 
H 	 -51.6666 	 3.72899 	 -30.1476 	 
