34

S 	 -107.522 	 44.9794 	 -9.41365 	 
C 	 -108.855 	 45.9306 	 -10.108 	 
C 	 -108.99 	 45.6984 	 -11.4815 	 
C 	 -108.073 	 44.6817 	 -11.8806 	 
C 	 -107.337 	 44.1844 	 -10.8885 	 
H 	 -107.996 	 44.2875 	 -12.8391 	 
C 	 -110.018 	 46.3562 	 -12.4882 	 
H 	 -109.534 	 46.99 	 -13.2104 	 
H 	 -110.761 	 46.9777 	 -11.9934 	 
C 	 -110.842 	 45.3287 	 -13.2232 	 
H 	 -111.562 	 45.853 	 -13.8726 	 
H 	 -110.233 	 44.606 	 -13.7255 	 
C 	 -111.783 	 44.443 	 -12.2955 	 
H 	 -112.354 	 43.6521 	 -12.8443 	 
H 	 -111.216 	 43.9401 	 -11.5857 	 
H 	 -112.569 	 45.13 	 -11.9077 	 
S 	 -104.81 	 43.413 	 -11.7295 	 
C 	 -104.312 	 41.7978 	 -11.4888 	 
C 	 -105.352 	 41.0146 	 -11.0177 	 
C 	 -106.495 	 41.7323 	 -10.6582 	 
C 	 -106.407 	 43.0451 	 -11.0632 	 
H 	 -105.24 	 39.9703 	 -10.9874 	 
C 	 -107.684 	 41.0247 	 -10.0222 	 
H 	 -108.522 	 41.6928 	 -9.7692 	 
H 	 -107.402 	 40.7374 	 -9.03965 	 
C 	 -108.163 	 39.7875 	 -10.7755 	 
H 	 -107.455 	 39.019 	 -10.6585 	 
H 	 -108.252 	 40.0241 	 -11.8439 	 
C 	 -109.459 	 39.2943 	 -10.2584 	 
H 	 -110.291 	 39.9652 	 -10.5496 	 
H 	 -109.521 	 39.0436 	 -9.17844 	 
H 	 -109.725 	 38.3738 	 -10.7734 	 
H 	 -109.499 	 46.6752 	 -9.604 	 
H 	 -103.432 	 41.4381 	 -12.0176 	 
