34

S 	 19.0199 	 0.0843758 	 -113.31 	 
C 	 18.8944 	 -1.21263 	 -112.171 	 
C 	 19.0295 	 -0.833987 	 -110.85 	 
C 	 19.2579 	 0.56682 	 -110.773 	 
C 	 19.3161 	 1.20106 	 -111.986 	 
H 	 19.4742 	 1.0497 	 -109.833 	 
C 	 19.0452 	 -1.71963 	 -109.621 	 
H 	 20.0867 	 -1.84363 	 -109.336 	 
H 	 18.7134 	 -2.75343 	 -109.95 	 
C 	 18.0846 	 -1.2634 	 -108.5 	 
H 	 18.2951 	 -1.90223 	 -107.601 	 
H 	 18.2811 	 -0.244808 	 -108.22 	 
C 	 16.6005 	 -1.48947 	 -108.793 	 
H 	 16.1983 	 -0.943507 	 -109.655 	 
H 	 16.4572 	 -2.52539 	 -108.929 	 
H 	 16.0237 	 -1.16705 	 -107.987 	 
S 	 18.4756 	 3.80181 	 -111.545 	 
C 	 19.2714 	 5.12436 	 -112.321 	 
C 	 20.4164 	 4.68744 	 -112.837 	 
C 	 20.6713 	 3.26628 	 -112.7 	 
C 	 19.5511 	 2.61989 	 -112.194 	 
H 	 21.0031 	 5.44709 	 -113.318 	 
C 	 21.8947 	 2.55952 	 -113.14 	 
H 	 21.998 	 1.65061 	 -112.62 	 
H 	 22.8021 	 3.03312 	 -112.758 	 
C 	 21.8829 	 2.32729 	 -114.636 	 
H 	 21.9107 	 3.27122 	 -115.107 	 
H 	 21.0134 	 1.82512 	 -114.917 	 
C 	 23.0813 	 1.49241 	 -115.157 	 
H 	 23.0476 	 1.41279 	 -116.238 	 
H 	 23.1734 	 0.448126 	 -114.815 	 
H 	 23.9701 	 2.06618 	 -114.885 	 
H 	 19.0951 	 -2.23632 	 -112.455 	 
H 	 18.921 	 6.06788 	 -112.652 	 
