34

S 	 -105.428 	 54.7604 	 -79.1582 	 
C 	 -105.168 	 54.3862 	 -80.8513 	 
C 	 -106.328 	 54.4042 	 -81.5441 	 
C 	 -107.465 	 54.8195 	 -80.7277 	 
C 	 -107.159 	 55.1004 	 -79.3911 	 
H 	 -108.355 	 55.1038 	 -81.2111 	 
C 	 -106.568 	 54.0792 	 -83.0376 	 
H 	 -107.63 	 53.8495 	 -83.0834 	 
H 	 -105.958 	 53.2099 	 -83.2244 	 
C 	 -105.965 	 55.218 	 -83.9724 	 
H 	 -106.258 	 56.2141 	 -83.652 	 
H 	 -104.849 	 55.3731 	 -84.0669 	 
C 	 -106.374 	 55.0719 	 -85.4947 	 
H 	 -107.439 	 55.0684 	 -85.6357 	 
H 	 -105.93 	 55.9223 	 -86.0732 	 
H 	 -105.882 	 54.1186 	 -85.9109 	 
S 	 -107.403 	 57.5038 	 -78.322 	 
C 	 -108.772 	 57.8488 	 -77.3319 	 
C 	 -109.612 	 56.766 	 -77.2011 	 
C 	 -109.128 	 55.5377 	 -77.7777 	 
C 	 -107.944 	 55.859 	 -78.4892 	 
H 	 -110.554 	 56.8959 	 -76.7512 	 
C 	 -109.907 	 54.1977 	 -77.9199 	 
H 	 -109.75 	 53.7548 	 -76.9477 	 
H 	 -109.397 	 53.6102 	 -78.6438 	 
C 	 -111.35 	 54.274 	 -78.4861 	 
H 	 -111.963 	 54.8761 	 -77.7448 	 
H 	 -111.886 	 53.3234 	 -78.4424 	 
C 	 -111.381 	 54.8963 	 -79.8633 	 
H 	 -112.402 	 55.0012 	 -80.2624 	 
H 	 -110.761 	 54.2883 	 -80.593 	 
H 	 -110.849 	 55.8644 	 -79.7618 	 
H 	 -104.182 	 54.0558 	 -81.3662 	 
H 	 -109.168 	 58.7166 	 -76.8808 	 
