34

S 	 -68.1289 	 7.20787 	 17.3681 	 
C 	 -66.91 	 8.1131 	 18.2656 	 
C 	 -67.1861 	 8.15613 	 19.6292 	 
C 	 -68.502 	 7.65663 	 19.9429 	 
C 	 -69.1141 	 7.02505 	 18.8746 	 
H 	 -68.9631 	 7.64286 	 20.8993 	 
C 	 -66.26 	 8.59112 	 20.7626 	 
H 	 -66.4711 	 8.09411 	 21.7227 	 
H 	 -66.3257 	 9.69309 	 20.8459 	 
C 	 -64.8708 	 8.14207 	 20.4565 	 
H 	 -65.0208 	 7.07046 	 20.1354 	 
H 	 -64.5143 	 8.63865 	 19.5843 	 
C 	 -63.8717 	 8.33906 	 21.6313 	 
H 	 -63.8125 	 9.40254 	 21.8816 	 
H 	 -64.1873 	 7.70352 	 22.5052 	 
H 	 -62.9133 	 8.04288 	 21.1468 	 
S 	 -71.7827 	 7.05861 	 18.1413 	 
C 	 -72.7211 	 5.66305 	 18.4545 	 
C 	 -71.9534 	 4.61021 	 18.9205 	 
C 	 -70.5725 	 4.92337 	 19.1215 	 
C 	 -70.3582 	 6.26088 	 18.8655 	 
H 	 -72.5385 	 3.77173 	 19.2251 	 
C 	 -69.6253 	 3.90897 	 19.6965 	 
H 	 -70.159 	 2.97574 	 19.7609 	 
H 	 -69.5288 	 4.12062 	 20.797 	 
C 	 -68.2537 	 3.89445 	 19.0356 	 
H 	 -67.8101 	 4.91792 	 19.1277 	 
H 	 -68.577 	 3.6948 	 17.9878 	 
C 	 -67.3771 	 2.85537 	 19.6391 	 
H 	 -67.1397 	 2.94696 	 20.6912 	 
H 	 -66.5937 	 2.76187 	 18.9104 	 
H 	 -67.9422 	 1.87886 	 19.6419 	 
H 	 -65.8906 	 8.32807 	 17.8389 	 
H 	 -73.7428 	 5.61565 	 18.178 	 
