34

S 	 -33.5085 	 -8.80099 	 9.61099 	 
C 	 -33.1025 	 -8.28882 	 11.2384 	 
C 	 -34.1603 	 -7.53512 	 11.762 	 
C 	 -35.2838 	 -7.48403 	 10.9053 	 
C 	 -34.9946 	 -7.90081 	 9.61905 	 
H 	 -36.1856 	 -6.98649 	 11.1728 	 
C 	 -34.1196 	 -6.8593 	 13.1687 	 
H 	 -33.2065 	 -7.13286 	 13.6415 	 
H 	 -34.8994 	 -7.37685 	 13.6885 	 
C 	 -34.3766 	 -5.3614 	 13.1842 	 
H 	 -35.3801 	 -5.23707 	 12.9561 	 
H 	 -34.2383 	 -4.85451 	 14.1843 	 
C 	 -33.5669 	 -4.62441 	 12.103 	 
H 	 -33.7153 	 -4.98982 	 11.103 	 
H 	 -33.906 	 -3.57087 	 12.0022 	 
H 	 -32.5038 	 -4.66834 	 12.2576 	 
S 	 -36.3219 	 -9.28119 	 7.53627 	 
C 	 -37.5285 	 -8.37775 	 6.6312 	 
C 	 -37.7244 	 -7.08034 	 7.09999 	 
C 	 -36.768 	 -6.74887 	 8.11086 	 
C 	 -35.9107 	 -7.82125 	 8.50737 	 
H 	 -38.5186 	 -6.46808 	 6.6564 	 
C 	 -36.6023 	 -5.31016 	 8.55189 	 
H 	 -36.6895 	 -4.80822 	 7.5714 	 
H 	 -35.5963 	 -5.10212 	 8.9655 	 
C 	 -37.6963 	 -4.74552 	 9.39327 	 
H 	 -37.6279 	 -5.14324 	 10.3692 	 
H 	 -38.7036 	 -4.92832 	 8.93833 	 
C 	 -37.4974 	 -3.25237 	 9.46372 	 
H 	 -37.5657 	 -2.8581 	 8.49967 	 
H 	 -36.4762 	 -3.04291 	 9.83631 	 
H 	 -38.2716 	 -2.91515 	 10.2074 	 
H 	 -32.1383 	 -8.37741 	 11.709 	 
H 	 -38.1393 	 -8.73705 	 5.79996 	 
