34

S 	 -132.92 	 27.6762 	 -15.0578 	 
C 	 -132.737 	 26.6631 	 -13.638 	 
C 	 -132.564 	 25.3165 	 -13.9456 	 
C 	 -132.487 	 25.098 	 -15.3732 	 
C 	 -132.686 	 26.2525 	 -16.1017 	 
H 	 -132.303 	 24.1717 	 -15.9121 	 
C 	 -132.163 	 24.2594 	 -12.9897 	 
H 	 -133.025 	 24.0318 	 -12.3831 	 
H 	 -131.622 	 24.8037 	 -12.2803 	 
C 	 -131.321 	 23.0219 	 -13.3921 	 
H 	 -130.918 	 22.575 	 -12.5275 	 
H 	 -132.007 	 22.3168 	 -13.9218 	 
C 	 -130.123 	 23.3425 	 -14.2656 	 
H 	 -129.55 	 22.3892 	 -14.1644 	 
H 	 -130.385 	 23.5784 	 -15.3118 	 
H 	 -129.55 	 24.163 	 -13.9311 	 
S 	 -131.303 	 27.3753 	 -18.1448 	 
C 	 -131.772 	 27.1397 	 -19.7497 	 
C 	 -132.815 	 26.3146 	 -19.9323 	 
C 	 -133.247 	 25.8223 	 -18.6154 	 
C 	 -132.566 	 26.3997 	 -17.5644 	 
H 	 -133.148 	 26.1547 	 -20.9355 	 
C 	 -134.406 	 24.8933 	 -18.4708 	 
H 	 -134.458 	 24.45 	 -17.5085 	 
H 	 -134.156 	 24.1436 	 -19.2154 	 
C 	 -135.705 	 25.6215 	 -18.7482 	 
H 	 -135.741 	 25.9321 	 -19.8091 	 
H 	 -135.738 	 26.6116 	 -18.1702 	 
C 	 -137.044 	 24.8559 	 -18.5373 	 
H 	 -136.958 	 23.8321 	 -19.0165 	 
H 	 -137.817 	 25.4108 	 -19.105 	 
H 	 -137.283 	 24.8851 	 -17.5182 	 
H 	 -132.799 	 27.0725 	 -12.6009 	 
H 	 -131.415 	 27.6784 	 -20.5834 	 
