34

S 	 -72.7039 	 11.2787 	 -71.1062 	 
C 	 -73.5246 	 11.8493 	 -72.5614 	 
C 	 -72.925 	 11.3607 	 -73.6973 	 
C 	 -72.0385 	 10.3222 	 -73.3758 	 
C 	 -71.7606 	 10.086 	 -72.0655 	 
H 	 -71.5148 	 9.75806 	 -74.0958 	 
C 	 -73.3235 	 11.7193 	 -75.1295 	 
H 	 -74.4043 	 12.0569 	 -75.0871 	 
H 	 -73.2535 	 10.7021 	 -75.6189 	 
C 	 -72.3612 	 12.8577 	 -75.6854 	 
H 	 -71.3291 	 12.742 	 -75.329 	 
H 	 -72.5254 	 12.8123 	 -76.7901 	 
C 	 -72.6627 	 14.3069 	 -75.2991 	 
H 	 -73.4688 	 14.7623 	 -75.8289 	 
H 	 -72.9821 	 14.3978 	 -74.215 	 
H 	 -71.7706 	 14.8802 	 -75.5598 	 
S 	 -69.322 	 9.63925 	 -70.7483 	 
C 	 -68.7957 	 7.94288 	 -70.6594 	 
C 	 -69.6239 	 7.09425 	 -71.3441 	 
C 	 -70.8269 	 7.74282 	 -71.7493 	 
C 	 -70.8398 	 9.09812 	 -71.5315 	 
H 	 -69.3609 	 6.03875 	 -71.377 	 
C 	 -71.8997 	 6.81608 	 -72.3391 	 
H 	 -71.5797 	 5.74176 	 -72.1965 	 
H 	 -71.9308 	 7.07798 	 -73.4099 	 
C 	 -73.3139 	 6.77734 	 -71.6501 	 
H 	 -73.8106 	 7.7187 	 -71.7884 	 
H 	 -73.0668 	 6.66566 	 -70.5694 	 
C 	 -74.2286 	 5.72669 	 -72.1738 	 
H 	 -74.5003 	 5.99981 	 -73.2591 	 
H 	 -75.1572 	 5.68452 	 -71.5856 	 
H 	 -73.7167 	 4.79769 	 -72.1173 	 
H 	 -74.3862 	 12.5011 	 -72.5328 	 
H 	 -67.8814 	 7.63596 	 -70.1221 	 
