34

S 	 -51.4854 	 -5.04494 	 -18.7201 	 
C 	 -53.0464 	 -5.46433 	 -19.3233 	 
C 	 -53.8927 	 -4.33488 	 -19.2989 	 
C 	 -53.1513 	 -3.10489 	 -18.9786 	 
C 	 -51.818 	 -3.34494 	 -18.68 	 
H 	 -53.453 	 -2.07932 	 -18.7415 	 
C 	 -55.3708 	 -4.28684 	 -19.5805 	 
H 	 -55.4369 	 -3.67561 	 -20.4457 	 
H 	 -55.8287 	 -3.82166 	 -18.8092 	 
C 	 -55.9718 	 -5.67407 	 -19.7134 	 
H 	 -55.6843 	 -6.16552 	 -20.7211 	 
H 	 -55.7864 	 -6.27886 	 -18.8385 	 
C 	 -57.5849 	 -5.52094 	 -19.7835 	 
H 	 -57.8401 	 -5.10788 	 -20.7443 	 
H 	 -58.0709 	 -6.45789 	 -19.9403 	 
H 	 -58.0615 	 -4.8638 	 -19.0031 	 
S 	 -49.2822 	 -2.81842 	 -19.2211 	 
C 	 -48.5146 	 -1.3199 	 -18.7229 	 
C 	 -49.4056 	 -0.513689 	 -18.0195 	 
C 	 -50.708 	 -1.1148 	 -17.899 	 
C 	 -50.796 	 -2.36815 	 -18.5148 	 
H 	 -49.0578 	 0.442294 	 -17.7028 	 
C 	 -51.74 	 -0.432103 	 -17.002 	 
H 	 -52.4258 	 -1.28028 	 -16.813 	 
H 	 -52.2032 	 0.383378 	 -17.5708 	 
C 	 -51.3562 	 0.166719 	 -15.7122 	 
H 	 -50.6879 	 1.04531 	 -15.7995 	 
H 	 -50.8179 	 -0.595467 	 -15.1729 	 
C 	 -52.5396 	 0.770985 	 -14.9289 	 
H 	 -53.0586 	 1.46472 	 -15.5385 	 
H 	 -52.1086 	 1.34454 	 -14.1597 	 
H 	 -53.1548 	 -0.0348371 	 -14.4698 	 
H 	 -53.3824 	 -6.44512 	 -19.6561 	 
H 	 -47.5631 	 -0.954048 	 -19.0571 	 
