34

S 	 -53.7045 	 -47.2758 	 -80.9404 	 
C 	 -53.3003 	 -46.0847 	 -79.8122 	 
C 	 -52.5765 	 -46.5811 	 -78.7177 	 
C 	 -52.6637 	 -48.0375 	 -78.7717 	 
C 	 -53.4179 	 -48.5952 	 -79.7825 	 
H 	 -52.1988 	 -48.6508 	 -77.9973 	 
C 	 -51.9337 	 -45.7542 	 -77.6222 	 
H 	 -52.6021 	 -46.0122 	 -76.8104 	 
H 	 -51.9395 	 -44.6941 	 -77.7044 	 
C 	 -50.5137 	 -46.1456 	 -77.0766 	 
H 	 -50.2821 	 -45.4941 	 -76.2195 	 
H 	 -50.631 	 -47.1269 	 -76.667 	 
C 	 -49.4326 	 -46.2424 	 -78.1745 	 
H 	 -49.7042 	 -47.0401 	 -78.9038 	 
H 	 -49.3953 	 -45.2778 	 -78.6241 	 
H 	 -48.4579 	 -46.3816 	 -77.7292 	 
S 	 -54.8848 	 -50.7976 	 -79.6259 	 
C 	 -54.3832 	 -52.3345 	 -80.2377 	 
C 	 -53.1874 	 -52.2879 	 -80.9074 	 
C 	 -52.7444 	 -50.9019 	 -80.9631 	 
C 	 -53.4889 	 -49.9984 	 -80.223 	 
H 	 -52.8557 	 -53.2538 	 -81.3222 	 
C 	 -51.3861 	 -50.5401 	 -81.6209 	 
H 	 -50.83 	 -51.4706 	 -81.6816 	 
H 	 -50.8311 	 -49.8391 	 -80.9531 	 
C 	 -51.5435 	 -49.8691 	 -82.9608 	 
H 	 -52.1184 	 -48.9825 	 -82.7954 	 
H 	 -52.1555 	 -50.5476 	 -83.6256 	 
C 	 -50.2127 	 -49.5533 	 -83.6496 	 
H 	 -49.7699 	 -48.6648 	 -83.0367 	 
H 	 -50.2982 	 -49.312 	 -84.7117 	 
H 	 -49.551 	 -50.3763 	 -83.5345 	 
H 	 -53.2345 	 -45.0992 	 -80.1678 	 
H 	 -54.9215 	 -53.2805 	 -80.0733 	 
