34

S 	 -38.4042 	 -4.11411 	 -6.82729 	 
C 	 -37.4356 	 -4.39281 	 -5.4303 	 
C 	 -36.2051 	 -3.71599 	 -5.47613 	 
C 	 -36.089 	 -2.95484 	 -6.70859 	 
C 	 -37.1423 	 -3.07925 	 -7.59532 	 
H 	 -35.1571 	 -2.47197 	 -6.96703 	 
C 	 -35.2038 	 -3.64461 	 -4.41695 	 
H 	 -35.7015 	 -3.54647 	 -3.39571 	 
H 	 -34.5737 	 -2.75027 	 -4.61596 	 
C 	 -34.293 	 -4.84541 	 -4.34077 	 
H 	 -34.9049 	 -5.68931 	 -3.84487 	 
H 	 -33.9098 	 -5.18111 	 -5.29076 	 
C 	 -33.0026 	 -4.52033 	 -3.58603 	 
H 	 -32.2599 	 -5.36374 	 -3.67256 	 
H 	 -32.5568 	 -3.6432 	 -3.85213 	 
H 	 -33.2054 	 -4.65484 	 -2.49523 	 
S 	 -35.835 	 -2.58238 	 -9.91017 	 
C 	 -36.732 	 -1.643 	 -11.2394 	 
C 	 -38.0174 	 -1.39035 	 -10.8225 	 
C 	 -38.2933 	 -1.87004 	 -9.57991 	 
C 	 -37.2409 	 -2.52372 	 -8.95146 	 
H 	 -38.7076 	 -0.940689 	 -11.5481 	 
C 	 -39.6861 	 -1.65667 	 -8.91776 	 
H 	 -39.5069 	 -1.10258 	 -7.93265 	 
H 	 -39.9621 	 -2.69207 	 -8.61561 	 
C 	 -40.7076 	 -0.832483 	 -9.62314 	 
H 	 -40.9807 	 -1.36009 	 -10.5403 	 
H 	 -40.3012 	 0.158283 	 -9.81891 	 
C 	 -41.984 	 -0.678483 	 -8.72171 	 
H 	 -42.5684 	 -1.63245 	 -8.60217 	 
H 	 -42.6636 	 0.166771 	 -9.15492 	 
H 	 -41.7427 	 -0.393086 	 -7.72888 	 
H 	 -37.7521 	 -4.82777 	 -4.54528 	 
H 	 -36.3816 	 -1.37444 	 -12.2237 	 
