34

S 	 -50.1017 	 6.87414 	 -16.7473 	 
C 	 -48.8201 	 6.95857 	 -18.0189 	 
C 	 -49.4882 	 7.2025 	 -19.2488 	 
C 	 -50.8945 	 6.97309 	 -19.214 	 
C 	 -51.3257 	 6.76653 	 -17.966 	 
H 	 -51.4715 	 7.05999 	 -20.1726 	 
C 	 -48.7555 	 7.42908 	 -20.5729 	 
H 	 -48.2064 	 8.41091 	 -20.681 	 
H 	 -49.5379 	 7.59256 	 -21.4142 	 
C 	 -47.7961 	 6.3474 	 -21.0926 	 
H 	 -47.1354 	 6.14614 	 -20.313 	 
H 	 -48.279 	 5.42125 	 -21.3402 	 
C 	 -46.9526 	 6.67368 	 -22.3319 	 
H 	 -46.4415 	 7.60777 	 -22.1846 	 
H 	 -46.2719 	 5.85357 	 -22.4432 	 
H 	 -47.5223 	 6.84091 	 -23.2337 	 
S 	 -53.1516 	 7.58634 	 -16.0622 	 
C 	 -54.8823 	 7.12531 	 -16.2554 	 
C 	 -55.0209 	 6.24398 	 -17.2949 	 
C 	 -53.8203 	 6.14183 	 -18.1222 	 
C 	 -52.697 	 6.71736 	 -17.5305 	 
H 	 -55.933 	 5.7085 	 -17.4887 	 
C 	 -53.9183 	 5.40806 	 -19.4626 	 
H 	 -53.6799 	 6.07466 	 -20.294 	 
H 	 -54.8667 	 4.94143 	 -19.5907 	 
C 	 -53.0993 	 4.10756 	 -19.6054 	 
H 	 -51.9906 	 4.35955 	 -19.6828 	 
H 	 -53.3894 	 3.70685 	 -20.5366 	 
C 	 -53.4053 	 3.09809 	 -18.4958 	 
H 	 -53.0397 	 3.40489 	 -17.511 	 
H 	 -52.7757 	 2.15445 	 -18.6078 	 
H 	 -54.4602 	 2.7843 	 -18.4075 	 
H 	 -47.6939 	 6.95727 	 -18.0315 	 
H 	 -55.6592 	 7.25626 	 -15.4739 	 
