34

S 	 -107.382 	 16.9753 	 -114.396 	 
C 	 -106.642 	 15.5167 	 -113.717 	 
C 	 -105.487 	 15.2292 	 -114.41 	 
C 	 -105.081 	 16.1852 	 -115.45 	 
C 	 -106.067 	 17.1165 	 -115.577 	 
H 	 -104.179 	 16.1342 	 -116.042 	 
C 	 -104.606 	 14.0562 	 -114.038 	 
H 	 -104.018 	 13.715 	 -114.878 	 
H 	 -105.345 	 13.3332 	 -113.693 	 
C 	 -103.738 	 14.3736 	 -112.843 	 
H 	 -103.094 	 15.1994 	 -113.089 	 
H 	 -104.235 	 14.7529 	 -111.958 	 
C 	 -103.115 	 13.0646 	 -112.335 	 
H 	 -103.89 	 12.4023 	 -112.029 	 
H 	 -102.406 	 12.5944 	 -112.947 	 
H 	 -102.445 	 13.2742 	 -111.435 	 
S 	 -105.347 	 19.8266 	 -115.877 	 
C 	 -105.549 	 20.5485 	 -117.439 	 
C 	 -105.856 	 19.6174 	 -118.389 	 
C 	 -106.057 	 18.3243 	 -117.857 	 
C 	 -105.945 	 18.2248 	 -116.483 	 
H 	 -106.053 	 19.9493 	 -119.42 	 
C 	 -106.609 	 17.2317 	 -118.763 	 
H 	 -107.013 	 17.6795 	 -119.668 	 
H 	 -107.531 	 16.9573 	 -118.258 	 
C 	 -105.622 	 16.0906 	 -119.025 	 
H 	 -106.297 	 15.2613 	 -119.471 	 
H 	 -105.166 	 15.8154 	 -118.072 	 
C 	 -104.456 	 16.5252 	 -119.994 	 
H 	 -103.883 	 17.364 	 -119.654 	 
H 	 -104.695 	 16.6982 	 -121.017 	 
H 	 -103.66 	 15.726 	 -119.958 	 
H 	 -107.109 	 14.8271 	 -112.944 	 
H 	 -105.515 	 21.5738 	 -117.686 	 
