34

S 	 -112.127 	 21.4668 	 -111.721 	 
C 	 -112.887 	 22.8495 	 -112.486 	 
C 	 -114.175 	 22.6557 	 -112.96 	 
C 	 -114.578 	 21.2699 	 -112.626 	 
C 	 -113.553 	 20.5108 	 -112.135 	 
H 	 -115.563 	 20.7791 	 -112.799 	 
C 	 -115.117 	 23.6244 	 -113.677 	 
H 	 -114.547 	 24.2998 	 -114.262 	 
H 	 -115.497 	 24.2764 	 -112.867 	 
C 	 -116.337 	 22.9102 	 -114.282 	 
H 	 -116.079 	 22.0798 	 -115.029 	 
H 	 -116.938 	 22.3328 	 -113.512 	 
C 	 -117.275 	 23.8356 	 -115.046 	 
H 	 -117.919 	 24.2572 	 -114.345 	 
H 	 -116.727 	 24.6731 	 -115.503 	 
H 	 -117.929 	 23.3507 	 -115.849 	 
S 	 -113.738 	 18.6661 	 -109.996 	 
C 	 -113.62 	 16.968 	 -110.387 	 
C 	 -113.371 	 16.7872 	 -111.789 	 
C 	 -113.453 	 17.9995 	 -112.539 	 
C 	 -113.55 	 19.129 	 -111.717 	 
H 	 -113.199 	 15.7719 	 -112.247 	 
C 	 -113.344 	 18.0702 	 -114.03 	 
H 	 -113.096 	 19.1054 	 -114.302 	 
H 	 -114.37 	 17.8229 	 -114.385 	 
C 	 -112.34 	 17.174 	 -114.775 	 
H 	 -112.396 	 17.5323 	 -115.846 	 
H 	 -112.684 	 16.1359 	 -114.75 	 
C 	 -110.92 	 17.3249 	 -114.232 	 
H 	 -110.588 	 18.33 	 -114.34 	 
H 	 -110.27 	 16.7265 	 -114.751 	 
H 	 -110.958 	 17.0234 	 -113.166 	 
H 	 -112.402 	 23.7443 	 -112.429 	 
H 	 -113.632 	 16.1904 	 -109.641 	 
