34

S 	 -47.5188 	 19.5454 	 29.0035 	 
C 	 -45.903 	 19.8164 	 28.2065 	 
C 	 -45.5931 	 18.6672 	 27.4321 	 
C 	 -46.3389 	 17.5299 	 27.9229 	 
C 	 -47.3207 	 17.8277 	 28.8462 	 
H 	 -46.0783 	 16.5474 	 27.7845 	 
C 	 -44.2961 	 18.5266 	 26.684 	 
H 	 -43.988 	 17.4622 	 26.733 	 
H 	 -43.5255 	 19.0747 	 27.267 	 
C 	 -44.3258 	 18.8961 	 25.2134 	 
H 	 -44.9455 	 19.8088 	 25.1001 	 
H 	 -43.3711 	 19.293 	 24.8646 	 
C 	 -44.694 	 17.6355 	 24.262 	 
H 	 -44.3506 	 17.7623 	 23.2084 	 
H 	 -44.2324 	 16.7262 	 24.6383 	 
H 	 -45.8124 	 17.3721 	 24.2265 	 
S 	 -47.728 	 16.9996 	 31.4516 	 
C 	 -48.8596 	 15.6913 	 31.7326 	 
C 	 -49.253 	 15.1167 	 30.5474 	 
C 	 -48.7175 	 15.7026 	 29.3815 	 
C 	 -48.083 	 16.9266 	 29.6677 	 
H 	 -49.8259 	 14.1851 	 30.6363 	 
C 	 -49.0556 	 15.2238 	 27.956 	 
H 	 -48.3528 	 15.6307 	 27.2956 	 
H 	 -50.0483 	 15.641 	 27.7653 	 
C 	 -49.0034 	 13.725 	 27.7182 	 
H 	 -49.3482 	 13.4285 	 26.6664 	 
H 	 -49.5774 	 13.2044 	 28.4598 	 
C 	 -47.6607 	 13.0231 	 27.8966 	 
H 	 -47.1949 	 13.1212 	 28.8442 	 
H 	 -46.949 	 13.4736 	 27.2448 	 
H 	 -47.6389 	 11.967 	 27.6085 	 
H 	 -45.3105 	 20.7477 	 28.2007 	 
H 	 -48.9846 	 15.3131 	 32.6956 	 
