34

S 	 33.4534 	 -31.1818 	 -115.642 	 
C 	 34.686 	 -29.8775 	 -115.299 	 
C 	 35.8089 	 -30.0259 	 -116.05 	 
C 	 35.6439 	 -31.0563 	 -117.028 	 
C 	 34.4513 	 -31.7623 	 -116.976 	 
H 	 36.3763 	 -31.2866 	 -117.822 	 
C 	 37.0138 	 -29.196 	 -116.129 	 
H 	 36.7644 	 -28.2073 	 -115.918 	 
H 	 37.4146 	 -29.0276 	 -117.125 	 
C 	 38.114 	 -29.6051 	 -115.084 	 
H 	 38.2664 	 -30.6908 	 -114.997 	 
H 	 38.9881 	 -29.0566 	 -115.428 	 
C 	 37.7425 	 -29.139 	 -113.746 	 
H 	 38.4887 	 -29.2565 	 -113.041 	 
H 	 37.4946 	 -27.9955 	 -113.742 	 
H 	 36.8064 	 -29.6957 	 -113.421 	 
S 	 32.6595 	 -32.6194 	 -118.794 	 
C 	 32.7005 	 -34.2549 	 -119.429 	 
C 	 33.9399 	 -34.7961 	 -119.24 	 
C 	 34.7498 	 -33.9724 	 -118.369 	 
C 	 34.0734 	 -32.8248 	 -117.917 	 
H 	 34.1529 	 -35.7603 	 -119.773 	 
C 	 36.1487 	 -34.3316 	 -117.919 	 
H 	 36.1231 	 -35.4191 	 -117.741 	 
H 	 36.3788 	 -33.8756 	 -117.002 	 
C 	 37.2196 	 -33.8821 	 -118.924 	 
H 	 37.1582 	 -32.914 	 -119.326 	 
H 	 37.1508 	 -34.5248 	 -119.791 	 
C 	 38.5845 	 -34.0878 	 -118.269 	 
H 	 38.6434 	 -35.142 	 -118.124 	 
H 	 38.5849 	 -33.5528 	 -117.268 	 
H 	 39.5259 	 -33.7219 	 -118.766 	 
H 	 34.6649 	 -29.3443 	 -114.385 	 
H 	 32.054 	 -34.4347 	 -120.236 	 
