34

S 	 -42.5976 	 18.9544 	 -95.1549 	 
C 	 -41.2313 	 19.4101 	 -93.976 	 
C 	 -41.1737 	 18.4421 	 -93.0647 	 
C 	 -42.1926 	 17.4612 	 -93.1098 	 
C 	 -43.0692 	 17.6328 	 -94.1923 	 
H 	 -42.4731 	 16.6265 	 -92.4173 	 
C 	 -40.1257 	 18.3097 	 -91.9634 	 
H 	 -40.6848 	 17.9401 	 -91.0921 	 
H 	 -39.9013 	 19.3339 	 -91.597 	 
C 	 -38.9299 	 17.4284 	 -92.2586 	 
H 	 -38.4895 	 17.9507 	 -93.1072 	 
H 	 -38.2193 	 17.4696 	 -91.4727 	 
C 	 -39.2007 	 15.963 	 -92.6409 	 
H 	 -38.2379 	 15.5139 	 -92.843 	 
H 	 -39.6635 	 15.5126 	 -91.8066 	 
H 	 -39.7902 	 15.8328 	 -93.5018 	 
S 	 -45.6375 	 17.712 	 -95.2367 	 
C 	 -46.6077 	 16.2567 	 -95.3128 	 
C 	 -45.8604 	 15.1874 	 -94.9014 	 
C 	 -44.5082 	 15.485 	 -94.5018 	 
C 	 -44.2283 	 16.8519 	 -94.6475 	 
H 	 -46.2617 	 14.1587 	 -94.7258 	 
C 	 -43.5009 	 14.3969 	 -93.8779 	 
H 	 -43.5482 	 14.5263 	 -92.8399 	 
H 	 -42.4201 	 14.568 	 -94.1416 	 
C 	 -43.8903 	 12.862 	 -94.1424 	 
H 	 -44.8361 	 12.7504 	 -93.5358 	 
H 	 -43.0267 	 12.2252 	 -93.8553 	 
C 	 -44.3539 	 12.5094 	 -95.5325 	 
H 	 -43.7779 	 11.7356 	 -96.0469 	 
H 	 -44.48 	 13.4264 	 -96.0702 	 
H 	 -45.3867 	 12.129 	 -95.5323 	 
H 	 -40.3837 	 20.0376 	 -94.1981 	 
H 	 -47.6509 	 16.122 	 -95.6715 	 
