34

S 	 -120.812 	 59.4017 	 -35.1397 	 
C 	 -122.018 	 59.25 	 -36.4033 	 
C 	 -122.221 	 60.4276 	 -37.0826 	 
C 	 -121.409 	 61.5022 	 -36.6154 	 
C 	 -120.616 	 61.1814 	 -35.5453 	 
H 	 -121.548 	 62.4907 	 -36.9611 	 
C 	 -123.247 	 60.5451 	 -38.2525 	 
H 	 -123.907 	 61.2301 	 -37.9341 	 
H 	 -123.848 	 59.5892 	 -38.204 	 
C 	 -122.655 	 61.1659 	 -39.6062 	 
H 	 -123.466 	 61.4676 	 -40.2106 	 
H 	 -122.109 	 62.1082 	 -39.2974 	 
C 	 -121.789 	 60.0944 	 -40.1723 	 
H 	 -122.634 	 59.3778 	 -40.3831 	 
H 	 -121.358 	 60.4503 	 -41.1183 	 
H 	 -120.984 	 59.7868 	 -39.533 	 
S 	 -118.125 	 61.4908 	 -34.667 	 
C 	 -117.537 	 62.8533 	 -33.8821 	 
C 	 -118.554 	 63.8044 	 -33.7743 	 
C 	 -119.881 	 63.2903 	 -34.2376 	 
C 	 -119.739 	 62.0151 	 -34.7474 	 
H 	 -118.482 	 64.6749 	 -33.0874 	 
C 	 -121.16 	 64.0516 	 -33.9765 	 
H 	 -121.856 	 63.9173 	 -34.7976 	 
H 	 -120.851 	 65.1393 	 -33.9048 	 
C 	 -121.955 	 63.6522 	 -32.7566 	 
H 	 -121.274 	 63.75 	 -31.9456 	 
H 	 -122.249 	 62.6078 	 -32.769 	 
C 	 -123.339 	 64.3756 	 -32.5319 	 
H 	 -123.224 	 65.3851 	 -32.2599 	 
H 	 -124.004 	 63.9114 	 -31.8299 	 
H 	 -123.829 	 64.3444 	 -33.4594 	 
H 	 -122.478 	 58.359 	 -36.6157 	 
H 	 -116.561 	 62.9857 	 -33.3981 	 
