34

S 	 -114.941 	 30.2588 	 -24.4129 	 
C 	 -114.868 	 29.896 	 -26.1542 	 
C 	 -115.939 	 29.0767 	 -26.5026 	 
C 	 -116.843 	 28.8793 	 -25.392 	 
C 	 -116.452 	 29.4222 	 -24.1653 	 
H 	 -117.699 	 28.207 	 -25.4437 	 
C 	 -116.31 	 28.6132 	 -27.876 	 
H 	 -115.879 	 29.1942 	 -28.6161 	 
H 	 -117.326 	 28.9921 	 -28.0349 	 
C 	 -116.157 	 27.0911 	 -28.2285 	 
H 	 -116.851 	 26.4831 	 -27.6375 	 
H 	 -116.477 	 26.9172 	 -29.261 	 
C 	 -114.704 	 26.6237 	 -28.1414 	 
H 	 -114.088 	 27.1208 	 -28.8934 	 
H 	 -114.369 	 26.713 	 -27.0783 	 
H 	 -114.617 	 25.609 	 -28.3386 	 
S 	 -117.719 	 27.6543 	 -22.4165 	 
C 	 -118.2 	 28.2889 	 -20.8476 	 
C 	 -117.96 	 29.632 	 -20.7752 	 
C 	 -117.469 	 30.203 	 -21.9677 	 
C 	 -117.143 	 29.2837 	 -22.8913 	 
H 	 -118.289 	 30.246 	 -19.9943 	 
C 	 -117.31 	 31.6895 	 -22.2076 	 
H 	 -118.146 	 32.284 	 -21.7641 	 
H 	 -117.393 	 31.9588 	 -23.2649 	 
C 	 -115.999 	 32.2522 	 -21.572 	 
H 	 -115.834 	 33.2126 	 -21.911 	 
H 	 -115.158 	 31.6257 	 -21.9264 	 
C 	 -115.985 	 32.2554 	 -19.9486 	 
H 	 -115.202 	 32.9842 	 -19.7172 	 
H 	 -115.644 	 31.318 	 -19.6057 	 
H 	 -116.923 	 32.6 	 -19.4731 	 
H 	 -114.012 	 30.203 	 -26.7972 	 
H 	 -118.66 	 27.7876 	 -19.9812 	 
