34

S 	 -48.2051 	 14.0727 	 -105.432 	 
C 	 -49.4281 	 13.3081 	 -106.534 	 
C 	 -50.1616 	 12.3274 	 -105.896 	 
C 	 -49.7001 	 12.0925 	 -104.494 	 
C 	 -48.649 	 12.9674 	 -104.128 	 
H 	 -50.1605 	 11.3915 	 -103.788 	 
C 	 -51.2365 	 11.3584 	 -106.414 	 
H 	 -50.9357 	 11.2836 	 -107.43 	 
H 	 -52.3147 	 11.779 	 -106.436 	 
C 	 -51.2958 	 9.87355 	 -105.875 	 
H 	 -51.7694 	 9.96261 	 -104.941 	 
H 	 -52.0192 	 9.28022 	 -106.421 	 
C 	 -49.9741 	 9.09522 	 -105.95 	 
H 	 -49.9407 	 8.03631 	 -105.601 	 
H 	 -49.6481 	 9.18313 	 -106.967 	 
H 	 -49.2776 	 9.55989 	 -105.283 	 
S 	 -46.1387 	 12.3988 	 -103.134 	 
C 	 -45.8278 	 12.6465 	 -101.396 	 
C 	 -46.9172 	 13.2627 	 -100.779 	 
C 	 -48.02 	 13.4129 	 -101.659 	 
C 	 -47.7799 	 12.9546 	 -102.96 	 
H 	 -46.8887 	 13.5987 	 -99.7972 	 
C 	 -49.2994 	 14.0464 	 -101.143 	 
H 	 -49.6613 	 13.6886 	 -100.079 	 
H 	 -50.1832 	 13.7664 	 -101.709 	 
C 	 -49.3004 	 15.594 	 -101.113 	 
H 	 -49.223 	 15.8467 	 -102.138 	 
H 	 -48.3661 	 15.9879 	 -100.653 	 
C 	 -50.6678 	 16.1645 	 -100.733 	 
H 	 -51.4328 	 15.8398 	 -101.401 	 
H 	 -50.6317 	 17.2512 	 -100.833 	 
H 	 -50.9449 	 15.8955 	 -99.6765 	 
H 	 -49.5306 	 13.6389 	 -107.572 	 
H 	 -44.8962 	 12.4358 	 -100.983 	 
