34

S 	 -41.0363 	 -1.9666 	 -5.01626 	 
C 	 -40.6523 	 -2.49658 	 -3.36333 	 
C 	 -39.3046 	 -2.33171 	 -3.03292 	 
C 	 -38.5756 	 -1.75984 	 -4.16913 	 
C 	 -39.3676 	 -1.52065 	 -5.28505 	 
H 	 -37.51 	 -1.63581 	 -4.24568 	 
C 	 -38.6312 	 -2.50178 	 -1.66157 	 
H 	 -39.1512 	 -2.02113 	 -0.896263 	 
H 	 -37.7606 	 -1.84842 	 -1.75343 	 
C 	 -38.1662 	 -3.90313 	 -1.35039 	 
H 	 -39.0867 	 -4.41502 	 -1.05896 	 
H 	 -37.7566 	 -4.21781 	 -2.25596 	 
C 	 -37.2235 	 -3.86053 	 -0.129347 	 
H 	 -36.3265 	 -3.23954 	 -0.182932 	 
H 	 -37.7995 	 -3.51397 	 0.762921 	 
H 	 -36.8388 	 -4.90692 	 -0.0109489 	 
S 	 -37.4446 	 -1.40295 	 -7.2393 	 
C 	 -37.7201 	 -0.583074 	 -8.83334 	 
C 	 -38.9369 	 0.0699273 	 -8.73053 	 
C 	 -39.6231 	 -0.0885712 	 -7.47704 	 
C 	 -38.9678 	 -0.897603 	 -6.53926 	 
H 	 -39.2062 	 0.695397 	 -9.59954 	 
C 	 -40.9749 	 0.51852 	 -7.23004 	 
H 	 -41.0994 	 0.85457 	 -6.1992 	 
H 	 -41.7039 	 -0.292496 	 -7.33165 	 
C 	 -41.3506 	 1.68502 	 -8.06667 	 
H 	 -41.2593 	 1.46813 	 -9.11236 	 
H 	 -40.758 	 2.57579 	 -7.80748 	 
C 	 -42.8401 	 2.0341 	 -7.72588 	 
H 	 -43.1625 	 3.02522 	 -8.04141 	 
H 	 -43.0212 	 2.07258 	 -6.63033 	 
H 	 -43.5193 	 1.32524 	 -8.17354 	 
H 	 -41.4412 	 -2.92994 	 -2.65657 	 
H 	 -37.0497 	 -0.544373 	 -9.68275 	 
