34

S 	 -141.184 	 8.56436 	 4.06475 	 
C 	 -142.429 	 7.91846 	 3.05262 	 
C 	 -141.998 	 7.58969 	 1.81898 	 
C 	 -140.566 	 7.96937 	 1.66566 	 
C 	 -139.986 	 8.47027 	 2.76122 	 
H 	 -140.078 	 7.906 	 0.720761 	 
C 	 -142.83 	 7.02718 	 0.745229 	 
H 	 -142.622 	 7.5848 	 -0.199655 	 
H 	 -143.848 	 7.15098 	 1.15818 	 
C 	 -142.519 	 5.49302 	 0.42636 	 
H 	 -141.471 	 5.37665 	 0.144632 	 
H 	 -142.752 	 4.93503 	 1.33183 	 
C 	 -143.413 	 4.98531 	 -0.757398 	 
H 	 -143.152 	 5.55688 	 -1.64329 	 
H 	 -143.266 	 3.98125 	 -1.05598 	 
H 	 -144.497 	 5.08916 	 -0.548804 	 
S 	 -138.532 	 10.7113 	 3.37961 	 
C 	 -136.808 	 10.744 	 3.25248 	 
C 	 -136.389 	 9.46502 	 2.81039 	 
C 	 -137.417 	 8.52293 	 2.56377 	 
C 	 -138.638 	 9.06528 	 2.84575 	 
H 	 -135.355 	 9.28952 	 2.7118 	 
C 	 -137.008 	 7.12056 	 2.08684 	 
H 	 -136.522 	 7.16144 	 1.16892 	 
H 	 -137.984 	 6.53125 	 1.91356 	 
C 	 -136.149 	 6.28168 	 3.10059 	 
H 	 -135.23 	 6.80556 	 3.35285 	 
H 	 -135.892 	 5.35293 	 2.58555 	 
C 	 -136.841 	 6.06756 	 4.47005 	 
H 	 -137.722 	 5.48064 	 4.32691 	 
H 	 -137.187 	 6.93936 	 4.88664 	 
H 	 -136.149 	 5.5781 	 5.16798 	 
H 	 -143.429 	 7.57116 	 3.52933 	 
H 	 -136.239 	 11.5477 	 3.64139 	 
