34

S 	 -108.787 	 59.2907 	 -95.7198 	 
C 	 -107.869 	 59.9446 	 -94.461 	 
C 	 -106.837 	 60.7924 	 -94.8768 	 
C 	 -106.672 	 60.7171 	 -96.2797 	 
C 	 -107.67 	 60.0362 	 -96.9274 	 
H 	 -105.855 	 61.1722 	 -96.8209 	 
C 	 -105.902 	 61.5189 	 -93.9651 	 
H 	 -105.202 	 60.7429 	 -93.6138 	 
H 	 -106.414 	 61.9274 	 -93.1018 	 
C 	 -105.211 	 62.6485 	 -94.7308 	 
H 	 -104.453 	 62.301 	 -95.414 	 
H 	 -105.962 	 63.2455 	 -95.3278 	 
C 	 -104.56 	 63.5561 	 -93.6899 	 
H 	 -103.727 	 64.1468 	 -94.0524 	 
H 	 -105.269 	 64.2801 	 -93.2045 	 
H 	 -104.04 	 62.9348 	 -92.8534 	 
S 	 -107.995 	 58.5452 	 -99.1722 	 
C 	 -108.441 	 59.2691 	 -100.708 	 
C 	 -108.267 	 60.6422 	 -100.639 	 
C 	 -108.06 	 61.0917 	 -99.2821 	 
C 	 -107.959 	 60.0403 	 -98.334 	 
H 	 -108.436 	 61.2331 	 -101.573 	 
C 	 -108.071 	 62.5646 	 -98.9213 	 
H 	 -108.131 	 62.5985 	 -97.8716 	 
H 	 -108.89 	 63.1487 	 -99.4009 	 
C 	 -106.686 	 63.1793 	 -99.3258 	 
H 	 -106.597 	 63.0211 	 -100.436 	 
H 	 -105.805 	 62.6785 	 -98.8463 	 
C 	 -106.66 	 64.725 	 -99.0178 	 
H 	 -107.475 	 65.2713 	 -99.5419 	 
H 	 -105.78 	 65.2235 	 -99.4795 	 
H 	 -106.612 	 64.8512 	 -97.8637 	 
H 	 -108.092 	 59.7235 	 -93.3915 	 
H 	 -108.681 	 58.7428 	 -101.613 	 
