34

S 	 -49.9162 	 9.99194 	 -16.8183 	 
C 	 -51.0709 	 10.0946 	 -15.5107 	 
C 	 -50.9556 	 11.3297 	 -14.898 	 
C 	 -50.0193 	 12.2544 	 -15.4757 	 
C 	 -49.2757 	 11.6081 	 -16.4669 	 
H 	 -49.819 	 13.2001 	 -15.1142 	 
C 	 -51.8547 	 11.7557 	 -13.7016 	 
H 	 -51.2094 	 12.2168 	 -13.0256 	 
H 	 -52.1711 	 10.8986 	 -13.1468 	 
C 	 -52.982 	 12.7385 	 -14.003 	 
H 	 -53.3927 	 13.2848 	 -13.126 	 
H 	 -52.4678 	 13.5875 	 -14.4189 	 
C 	 -54.044 	 12.1475 	 -14.9584 	 
H 	 -54.3746 	 11.1273 	 -14.7417 	 
H 	 -55.001 	 12.7149 	 -14.9682 	 
H 	 -53.7082 	 12.0829 	 -16.0198 	 
S 	 -46.8183 	 10.7748 	 -17.3871 	 
C 	 -45.7685 	 11.9749 	 -18.1346 	 
C 	 -46.3291 	 13.249 	 -18.0874 	 
C 	 -47.6255 	 13.2591 	 -17.5505 	 
C 	 -48.0078 	 12.0418 	 -17.0245 	 
H 	 -45.7467 	 14.0609 	 -18.4544 	 
C 	 -48.4006 	 14.5244 	 -17.416 	 
H 	 -49.4821 	 14.3588 	 -17.5538 	 
H 	 -48.1151 	 15.002 	 -18.3312 	 
C 	 -48.1178 	 15.3591 	 -16.2617 	 
H 	 -47.1233 	 15.7099 	 -16.2848 	 
H 	 -48.2408 	 14.8662 	 -15.2733 	 
C 	 -48.9043 	 16.6201 	 -16.2519 	 
H 	 -49.7457 	 16.4559 	 -15.6973 	 
H 	 -49.1409 	 16.9209 	 -17.2726 	 
H 	 -48.2863 	 17.4267 	 -15.775 	 
H 	 -51.7137 	 9.36035 	 -15.1004 	 
H 	 -44.7001 	 11.8361 	 -18.4005 	 
