34

S 	 -120.797 	 26.1191 	 -17.2973 	 
C 	 -119.917 	 26.2991 	 -18.7376 	 
C 	 -118.584 	 26.1454 	 -18.5799 	 
C 	 -118.246 	 25.9436 	 -17.2038 	 
C 	 -119.359 	 25.9173 	 -16.3593 	 
H 	 -117.293 	 25.9201 	 -16.8194 	 
C 	 -117.494 	 26.3527 	 -19.6516 	 
H 	 -116.62 	 26.7592 	 -19.1673 	 
H 	 -117.74 	 27.1135 	 -20.3492 	 
C 	 -117.064 	 25.1725 	 -20.4875 	 
H 	 -116.571 	 24.4992 	 -19.7371 	 
H 	 -117.978 	 24.8208 	 -21.0226 	 
C 	 -116.129 	 25.5504 	 -21.6118 	 
H 	 -116.645 	 26.2683 	 -22.1886 	 
H 	 -115.253 	 25.9713 	 -21.2806 	 
H 	 -115.988 	 24.5915 	 -22.0933 	 
S 	 -119.125 	 24.1677 	 -14.2929 	 
C 	 -119.844 	 24.6663 	 -12.7449 	 
C 	 -120.248 	 25.9674 	 -12.7295 	 
C 	 -120.041 	 26.5928 	 -14.0076 	 
C 	 -119.443 	 25.7649 	 -14.9509 	 
H 	 -120.74 	 26.4599 	 -11.9349 	 
C 	 -120.365 	 28.0538 	 -14.202 	 
H 	 -119.849 	 28.5151 	 -15.0383 	 
H 	 -119.841 	 28.5452 	 -13.4095 	 
C 	 -121.899 	 28.4557 	 -14.1975 	 
H 	 -122.398 	 27.9248 	 -15.0298 	 
H 	 -122.036 	 29.497 	 -14.4637 	 
C 	 -122.704 	 28.252 	 -12.8905 	 
H 	 -122.976 	 27.1961 	 -12.5803 	 
H 	 -123.65 	 28.7314 	 -13.0324 	 
H 	 -122.18 	 28.7121 	 -12.105 	 
H 	 -120.286 	 26.51 	 -19.6617 	 
H 	 -120.008 	 24.0206 	 -11.8868 	 
