34

S 	 -104.345 	 61.3763 	 -97.1749 	 
C 	 -105.371 	 60.8478 	 -98.445 	 
C 	 -104.982 	 61.2336 	 -99.6807 	 
C 	 -103.808 	 62.0521 	 -99.648 	 
C 	 -103.28 	 62.1403 	 -98.3721 	 
H 	 -103.346 	 62.6657 	 -100.439 	 
C 	 -105.676 	 60.9332 	 -100.991 	 
H 	 -105.534 	 61.6943 	 -101.712 	 
H 	 -106.713 	 60.8685 	 -100.841 	 
C 	 -105.111 	 59.6768 	 -101.715 	 
H 	 -104.038 	 59.7153 	 -101.884 	 
H 	 -105.268 	 58.8435 	 -100.965 	 
C 	 -105.874 	 59.278 	 -102.971 	 
H 	 -106.702 	 58.8764 	 -102.578 	 
H 	 -106.067 	 60.0758 	 -103.694 	 
H 	 -105.314 	 58.4564 	 -103.402 	 
S 	 -102.376 	 64.2961 	 -96.9567 	 
C 	 -100.727 	 64.6918 	 -96.9785 	 
C 	 -99.9798 	 64.0138 	 -97.8748 	 
C 	 -100.789 	 62.9294 	 -98.4515 	 
C 	 -102.117 	 62.9164 	 -97.9931 	 
H 	 -98.9508 	 64.3836 	 -98.1268 	 
C 	 -100.178 	 61.9535 	 -99.4297 	 
H 	 -100.396 	 60.9012 	 -99.2971 	 
H 	 -99.1396 	 61.8934 	 -99.2082 	 
C 	 -100.237 	 62.2729 	 -100.939 	 
H 	 -99.6107 	 63.1404 	 -101.061 	 
H 	 -101.238 	 62.5843 	 -101.298 	 
C 	 -99.6875 	 61.1281 	 -101.819 	 
H 	 -100.293 	 60.2422 	 -101.723 	 
H 	 -98.6841 	 60.9001 	 -101.415 	 
H 	 -99.67 	 61.4492 	 -102.86 	 
H 	 -106.281 	 60.374 	 -98.2034 	 
H 	 -100.307 	 65.6568 	 -96.6379 	 
