34

S 	 -52.5416 	 9.3412 	 -21.4568 	 
C 	 -51.3843 	 10.7369 	 -21.6156 	 
C 	 -51.9063 	 11.8553 	 -21.0754 	 
C 	 -53.2443 	 11.5866 	 -20.6137 	 
C 	 -53.6721 	 10.3048 	 -20.6526 	 
H 	 -53.9569 	 12.2806 	 -20.1823 	 
C 	 -51.2744 	 13.1957 	 -20.9803 	 
H 	 -52.1871 	 13.7564 	 -21.2574 	 
H 	 -50.4562 	 13.2815 	 -21.6864 	 
C 	 -50.7528 	 13.5635 	 -19.5984 	 
H 	 -50.0946 	 14.4844 	 -19.5556 	 
H 	 -51.612 	 13.7807 	 -18.9734 	 
C 	 -49.822 	 12.4388 	 -19.0883 	 
H 	 -48.9145 	 12.5568 	 -19.5435 	 
H 	 -49.6892 	 12.5307 	 -18.0393 	 
H 	 -50.1104 	 11.4051 	 -19.251 	 
S 	 -55.1726 	 8.89451 	 -18.8226 	 
C 	 -56.9137 	 8.91349 	 -18.9104 	 
C 	 -57.3352 	 9.55275 	 -20.0507 	 
C 	 -56.2966 	 10.1297 	 -20.8287 	 
C 	 -55.024 	 9.95377 	 -20.2007 	 
H 	 -58.4047 	 9.81387 	 -20.2394 	 
C 	 -56.6179 	 10.88 	 -22.12 	 
H 	 -56.2694 	 10.2016 	 -22.9358 	 
H 	 -55.9265 	 11.7724 	 -22.2093 	 
C 	 -58.0722 	 11.1711 	 -22.4451 	 
H 	 -58.5553 	 11.769 	 -21.7245 	 
H 	 -58.6089 	 10.2307 	 -22.5147 	 
C 	 -58.2461 	 11.9776 	 -23.7598 	 
H 	 -57.4817 	 11.7089 	 -24.5576 	 
H 	 -58.2617 	 13.0349 	 -23.5307 	 
H 	 -59.2653 	 11.7282 	 -24.1009 	 
H 	 -50.3865 	 10.5708 	 -21.9943 	 
H 	 -57.5301 	 8.52339 	 -18.116 	 
