34

S 	 -33.334 	 -36.9781 	 -87.4469 	 
C 	 -32.0313 	 -36.1167 	 -86.6201 	 
C 	 -31.0787 	 -35.7121 	 -87.5907 	 
C 	 -31.3718 	 -36.1738 	 -88.9553 	 
C 	 -32.5423 	 -36.8252 	 -89.0542 	 
H 	 -30.8396 	 -35.9728 	 -89.8901 	 
C 	 -29.9686 	 -34.7329 	 -87.2781 	 
H 	 -30.3391 	 -34.189 	 -86.5265 	 
H 	 -29.7857 	 -33.9595 	 -88.0263 	 
C 	 -28.562 	 -35.4367 	 -87.0425 	 
H 	 -28.7401 	 -36.2133 	 -86.3628 	 
H 	 -28.4056 	 -35.9718 	 -87.9886 	 
C 	 -27.4212 	 -34.5412 	 -86.5043 	 
H 	 -27.7941 	 -34.0389 	 -85.58 	 
H 	 -26.5029 	 -35.0824 	 -86.3229 	 
H 	 -27.0946 	 -33.7578 	 -87.2256 	 
S 	 -34.9552 	 -36.9036 	 -90.2529 	 
C 	 -35.1475 	 -37.5456 	 -91.8278 	 
C 	 -33.9653 	 -37.9826 	 -92.3424 	 
C 	 -32.8408 	 -37.8037 	 -91.4292 	 
C 	 -33.2536 	 -37.1836 	 -90.2488 	 
H 	 -33.9248 	 -38.3599 	 -93.2974 	 
C 	 -31.4452 	 -38.1401 	 -91.8865 	 
H 	 -31.4193 	 -39.2269 	 -91.9897 	 
H 	 -30.733 	 -37.8339 	 -91.1134 	 
C 	 -31.1061 	 -37.3401 	 -93.1526 	 
H 	 -31.3332 	 -36.2613 	 -93.0497 	 
H 	 -31.8215 	 -37.732 	 -93.9461 	 
C 	 -29.6917 	 -37.5538 	 -93.6666 	 
H 	 -29.0331 	 -36.9183 	 -93.0593 	 
H 	 -29.5591 	 -37.283 	 -94.7531 	 
H 	 -29.3272 	 -38.5798 	 -93.5878 	 
H 	 -31.9581 	 -35.9227 	 -85.5314 	 
H 	 -36.0315 	 -37.3094 	 -92.379 	 
