34

S 	 -29.7905 	 31.0917 	 45.5637 	 
C 	 -28.9347 	 30.1555 	 46.7714 	 
C 	 -29.3152 	 30.5166 	 48.0008 	 
C 	 -30.406 	 31.4447 	 48.0524 	 
C 	 -30.873 	 31.8122 	 46.7645 	 
H 	 -30.8416 	 31.8161 	 48.976 	 
C 	 -28.8695 	 29.9733 	 49.3047 	 
H 	 -27.9162 	 29.5637 	 49.1077 	 
H 	 -29.5648 	 29.1772 	 49.6123 	 
C 	 -28.5848 	 30.9832 	 50.5393 	 
H 	 -29.4794 	 31.4606 	 50.9801 	 
H 	 -28.1588 	 30.3567 	 51.3813 	 
C 	 -27.5798 	 32.1214 	 50.2348 	 
H 	 -26.6545 	 31.7791 	 49.8436 	 
H 	 -27.9377 	 32.9453 	 49.6617 	 
H 	 -27.2704 	 32.5722 	 51.171 	 
S 	 -31.8191 	 33.7951 	 45.329 	 
C 	 -33.4471 	 34.4006 	 45.6703 	 
C 	 -34.1391 	 33.6896 	 46.6428 	 
C 	 -33.3407 	 32.6052 	 47.1143 	 
C 	 -32.057 	 32.6369 	 46.5871 	 
H 	 -35.1898 	 33.9156 	 46.8272 	 
C 	 -33.8467 	 31.6858 	 48.1131 	 
H 	 -34.6146 	 32.134 	 48.7539 	 
H 	 -32.9859 	 31.5599 	 48.7429 	 
C 	 -34.3358 	 30.3565 	 47.5899 	 
H 	 -33.5629 	 29.9831 	 46.9251 	 
H 	 -35.1829 	 30.5168 	 46.9113 	 
C 	 -34.6203 	 29.3037 	 48.6285 	 
H 	 -35.4458 	 29.515 	 49.3218 	 
H 	 -33.7123 	 29.1966 	 49.1914 	 
H 	 -34.7533 	 28.3303 	 48.1423 	 
H 	 -28.215 	 29.4636 	 46.6378 	 
H 	 -33.9467 	 35.2702 	 45.1544 	 
