34

S 	 -83.7728 	 55.1334 	 135.284 	 
C 	 -84.5476 	 53.9007 	 136.335 	 
C 	 -83.8316 	 53.7914 	 137.534 	 
C 	 -82.633 	 54.5342 	 137.53 	 
C 	 -82.3818 	 55.2853 	 136.442 	 
H 	 -81.9338 	 54.6062 	 138.419 	 
C 	 -84.0946 	 52.8592 	 138.66 	 
H 	 -85.0454 	 52.4351 	 138.36 	 
H 	 -84.3351 	 53.4076 	 139.551 	 
C 	 -83.0978 	 51.7369 	 138.768 	 
H 	 -82.8439 	 51.3575 	 137.761 	 
H 	 -82.1805 	 52.0773 	 139.243 	 
C 	 -83.5822 	 50.541 	 139.641 	 
H 	 -83.9249 	 51.0582 	 140.597 	 
H 	 -84.498 	 50.1703 	 139.213 	 
H 	 -82.8233 	 49.6988 	 139.825 	 
S 	 -81.9963 	 57.9796 	 136.154 	 
C 	 -80.3547 	 58.5614 	 135.81 	 
C 	 -79.4524 	 57.5652 	 135.706 	 
C 	 -80.0283 	 56.2225 	 135.888 	 
C 	 -81.4078 	 56.3208 	 136.243 	 
H 	 -78.4779 	 57.7889 	 135.375 	 
C 	 -79.2424 	 54.9589 	 135.519 	 
H 	 -78.6417 	 55.0942 	 134.55 	 
H 	 -80.0002 	 54.1747 	 135.249 	 
C 	 -78.3342 	 54.4296 	 136.584 	 
H 	 -77.685 	 55.2296 	 136.921 	 
H 	 -77.8235 	 53.606 	 136.123 	 
C 	 -79.0001 	 53.9715 	 137.833 	 
H 	 -78.2607 	 53.4355 	 138.455 	 
H 	 -79.7931 	 53.2089 	 137.72 	 
H 	 -79.4285 	 54.8218 	 138.334 	 
H 	 -85.4797 	 53.4237 	 136.091 	 
H 	 -80.1118 	 59.5906 	 135.692 	 
