34

S 	 3.32449 	 12.4058 	 83.7572 	 
C 	 3.85994 	 13.3195 	 82.4403 	 
C 	 4.33783 	 12.5556 	 81.3906 	 
C 	 4.29485 	 11.1469 	 81.6979 	 
C 	 3.72283 	 10.8857 	 82.9257 	 
H 	 4.5155 	 10.3368 	 81.0132 	 
C 	 4.83416 	 13.1192 	 80.0761 	 
H 	 4.86569 	 12.3572 	 79.3094 	 
H 	 5.92574 	 13.3464 	 80.18 	 
C 	 4.04673 	 14.3414 	 79.5909 	 
H 	 2.99144 	 14.3701 	 79.8772 	 
H 	 4.56812 	 15.1095 	 80.1429 	 
C 	 4.15596 	 14.6792 	 78.0377 	 
H 	 3.66912 	 15.6202 	 77.7737 	 
H 	 5.20574 	 14.7393 	 77.875 	 
H 	 3.80099 	 13.9058 	 77.3443 	 
S 	 1.75257 	 8.97717 	 82.8656 	 
C 	 1.89549 	 7.73549 	 84.0878 	 
C 	 3.09937 	 7.72134 	 84.6998 	 
C 	 3.95465 	 8.81044 	 84.2274 	 
C 	 3.31504 	 9.65352 	 83.3882 	 
H 	 3.38829 	 6.91857 	 85.3783 	 
C 	 5.39452 	 8.9362 	 84.7297 	 
H 	 5.81968 	 9.77125 	 84.172 	 
H 	 6.07061 	 8.18125 	 84.5391 	 
C 	 5.44682 	 9.4181 	 86.1988 	 
H 	 6.52028 	 9.52838 	 86.428 	 
H 	 5.03792 	 8.59011 	 86.8394 	 
C 	 4.58129 	 10.7467 	 86.4502 	 
H 	 4.74844 	 11.5234 	 85.6734 	 
H 	 4.74084 	 11.2568 	 87.4702 	 
H 	 3.55522 	 10.4142 	 86.3584 	 
H 	 3.8882 	 14.3858 	 82.511 	 
H 	 1.18148 	 7.03743 	 84.4452 	 
