34

S 	 44.8534 	 11.0122 	 84.1979 	 
C 	 45.4973 	 12.1128 	 83.0345 	 
C 	 44.799 	 13.2991 	 82.8198 	 
C 	 43.6195 	 13.2266 	 83.6181 	 
C 	 43.5135 	 12.0919 	 84.4583 	 
H 	 42.926 	 14.0057 	 83.6975 	 
C 	 45.1196 	 14.3917 	 81.8661 	 
H 	 46.0612 	 14.0675 	 81.2687 	 
H 	 45.3053 	 15.2896 	 82.5353 	 
C 	 44.0407 	 14.5444 	 80.7639 	 
H 	 43.9015 	 13.7412 	 80.0757 	 
H 	 43.1375 	 14.7575 	 81.2278 	 
C 	 44.4279 	 15.7469 	 79.872 	 
H 	 44.2829 	 16.5974 	 80.4584 	 
H 	 45.442 	 15.6859 	 79.5497 	 
H 	 43.7283 	 15.829 	 78.9776 	 
S 	 43.0341 	 11.6948 	 87.1189 	 
C 	 41.3301 	 11.3862 	 87.6983 	 
C 	 40.4531 	 11.485 	 86.6578 	 
C 	 41.119 	 11.8377 	 85.4108 	 
C 	 42.4669 	 11.8652 	 85.4229 	 
H 	 39.3968 	 11.5134 	 86.797 	 
C 	 40.2906 	 11.9142 	 84.1316 	 
H 	 39.5777 	 11.1518 	 83.9648 	 
H 	 40.9741 	 11.8193 	 83.2295 	 
C 	 39.6458 	 13.2793 	 83.9346 	 
H 	 40.3932 	 14.0663 	 83.9629 	 
H 	 38.9167 	 13.4625 	 84.7402 	 
C 	 39.0599 	 13.5165 	 82.5321 	 
H 	 38.6656 	 14.5022 	 82.3235 	 
H 	 38.2157 	 12.8689 	 82.3167 	 
H 	 39.8626 	 13.4273 	 81.823 	 
H 	 46.4645 	 11.8614 	 82.5319 	 
H 	 40.9336 	 11.4522 	 88.6635 	 
