34

S 	 51.4953 	 19.8467 	 91.5082 	 
C 	 50.5269 	 19.3186 	 92.9253 	 
C 	 51.0743 	 18.174 	 93.5304 	 
C 	 52.2882 	 17.8189 	 92.8145 	 
C 	 52.7212 	 18.694 	 91.8474 	 
H 	 52.8536 	 16.8765 	 92.8606 	 
C 	 50.4417 	 17.3247 	 94.5916 	 
H 	 50.1789 	 16.353 	 94.157 	 
H 	 49.4696 	 17.812 	 94.8496 	 
C 	 51.2083 	 17.0042 	 95.9007 	 
H 	 50.663 	 16.5277 	 96.6775 	 
H 	 52.0396 	 16.4261 	 95.549 	 
C 	 51.7847 	 18.2764 	 96.5591 	 
H 	 51.6452 	 18.1763 	 97.6154 	 
H 	 52.8807 	 18.5728 	 96.5 	 
H 	 51.2982 	 19.1671 	 96.1822 	 
S 	 53.5929 	 19.0709 	 89.356 	 
C 	 55.2048 	 18.7807 	 88.9328 	 
C 	 55.9682 	 18.2993 	 90.0083 	 
C 	 55.1747 	 18.171 	 91.2101 	 
C 	 53.8472 	 18.5127 	 90.9281 	 
H 	 57.0288 	 18.1669 	 89.9482 	 
C 	 55.6799 	 17.9047 	 92.6251 	 
H 	 56.526 	 17.3081 	 92.5046 	 
H 	 55.0377 	 17.2662 	 93.2249 	 
C 	 55.9098 	 19.1408 	 93.4898 	 
H 	 55.9384 	 18.9416 	 94.5895 	 
H 	 55.1115 	 19.8107 	 93.0887 	 
C 	 57.2285 	 19.7201 	 92.9997 	 
H 	 57.4802 	 20.6338 	 93.4305 	 
H 	 57.1575 	 19.9684 	 92.0037 	 
H 	 58.0478 	 19.0502 	 93.0451 	 
H 	 49.6839 	 19.8325 	 93.2954 	 
H 	 55.6241 	 19.0569 	 87.9871 	 
