34

S 	 -8.79961 	 9.22099 	 84.8152 	 
C 	 -7.98211 	 7.74391 	 85.2835 	 
C 	 -8.8801 	 6.736 	 85.3994 	 
C 	 -10.1658 	 7.12848 	 85.0541 	 
C 	 -10.3018 	 8.36546 	 84.523 	 
H 	 -11.1247 	 6.5379 	 85.0174 	 
C 	 -8.62495 	 5.35559 	 85.9572 	 
H 	 -7.8864 	 4.93881 	 85.2682 	 
H 	 -9.52441 	 4.72924 	 85.8443 	 
C 	 -8.01975 	 5.22176 	 87.3824 	 
H 	 -7.12004 	 5.83418 	 87.4921 	 
H 	 -8.8834 	 5.63206 	 87.9102 	 
C 	 -7.9452 	 3.65541 	 87.8293 	 
H 	 -8.85436 	 3.20527 	 87.5004 	 
H 	 -7.19715 	 3.01139 	 87.4156 	 
H 	 -7.92159 	 3.54057 	 88.8752 	 
S 	 -12.1829 	 10.3882 	 85.1234 	 
C 	 -13.6322 	 10.4679 	 84.1444 	 
C 	 -13.6135 	 9.44808 	 83.216 	 
C 	 -12.4675 	 8.62129 	 83.268 	 
C 	 -11.5222 	 9.07363 	 84.1649 	 
H 	 -14.4211 	 9.31135 	 82.5026 	 
C 	 -12.3448 	 7.36705 	 82.4185 	 
H 	 -12.921 	 6.54884 	 82.9134 	 
H 	 -11.3222 	 7.12724 	 82.2197 	 
C 	 -12.9726 	 7.44076 	 81.0084 	 
H 	 -14.0169 	 7.55422 	 81.0951 	 
H 	 -12.8851 	 6.5073 	 80.525 	 
C 	 -12.3563 	 8.52004 	 80.0436 	 
H 	 -11.608 	 7.96479 	 79.5072 	 
H 	 -11.8577 	 9.32609 	 80.6764 	 
H 	 -13.1068 	 8.94132 	 79.3389 	 
H 	 -6.98124 	 7.58835 	 85.4914 	 
H 	 -14.3153 	 11.4021 	 84.1419 	 
