34

S 	 -5.57038 	 76.0139 	 49.623 	 
C 	 -3.88442 	 76.2447 	 49.61 	 
C 	 -3.12315 	 75.2156 	 50.1146 	 
C 	 -3.914 	 74.1262 	 50.5179 	 
C 	 -5.25847 	 74.3208 	 50.2385 	 
H 	 -3.57307 	 73.1661 	 50.9466 	 
C 	 -1.61026 	 75.1754 	 50.1339 	 
H 	 -1.23848 	 74.2951 	 50.7052 	 
H 	 -1.20355 	 76.1263 	 50.64 	 
C 	 -0.991082 	 74.9866 	 48.6941 	 
H 	 -1.54083 	 74.1163 	 48.2494 	 
H 	 -1.22159 	 75.869 	 48.1284 	 
C 	 0.529332 	 74.6992 	 48.5335 	 
H 	 0.78236 	 73.6925 	 48.8277 	 
H 	 0.720524 	 74.8427 	 47.5006 	 
H 	 1.12477 	 75.3952 	 49.0613 	 
S 	 -7.83749 	 73.8836 	 51.2197 	 
C 	 -8.45897 	 72.2143 	 51.2578 	 
C 	 -7.63847 	 71.3568 	 50.5902 	 
C 	 -6.40689 	 72.0089 	 50.1447 	 
C 	 -6.33536 	 73.3646 	 50.4865 	 
H 	 -7.9026 	 70.3676 	 50.5807 	 
C 	 -5.3214 	 71.1613 	 49.4609 	 
H 	 -5.46841 	 70.1532 	 49.6415 	 
H 	 -4.33813 	 71.3967 	 49.8513 	 
C 	 -5.27298 	 71.3324 	 47.9739 	 
H 	 -4.43891 	 70.7546 	 47.7286 	 
H 	 -5.06178 	 72.3573 	 47.605 	 
C 	 -6.49613 	 70.8019 	 47.2159 	 
H 	 -7.03529 	 69.9176 	 47.5806 	 
H 	 -6.31376 	 70.4672 	 46.1599 	 
H 	 -7.27775 	 71.5352 	 47.2947 	 
H 	 -3.43691 	 77.2597 	 49.3485 	 
H 	 -9.4089 	 71.9331 	 51.6654 	 
