34

S 	 33.4716 	 -3.04531 	 73.655 	 
C 	 32.8623 	 -1.59666 	 74.3812 	 
C 	 32.0839 	 -0.943193 	 73.4142 	 
C 	 32.2308 	 -1.41214 	 72.0885 	 
C 	 32.8728 	 -2.6353 	 72.0478 	 
H 	 31.6998 	 -1.19857 	 71.2223 	 
C 	 31.2919 	 0.325882 	 73.6498 	 
H 	 31.2537 	 0.371445 	 74.7564 	 
H 	 30.2804 	 0.228133 	 73.3332 	 
C 	 32.0061 	 1.61384 	 73.0795 	 
H 	 32.8586 	 1.71624 	 73.7336 	 
H 	 32.388 	 1.57239 	 72.1036 	 
C 	 31.067 	 2.78861 	 73.2376 	 
H 	 30.76 	 2.98541 	 74.2312 	 
H 	 31.5491 	 3.73799 	 72.8719 	 
H 	 30.0953 	 2.68819 	 72.7223 	 
S 	 33.5104 	 -5.17824 	 71.2037 	 
C 	 33.4375 	 -5.6166 	 69.5653 	 
C 	 33.1725 	 -4.47021 	 68.7941 	 
C 	 33.0396 	 -3.21874 	 69.4671 	 
C 	 33.1021 	 -3.46712 	 70.8649 	 
H 	 33.1651 	 -4.50407 	 67.7116 	 
C 	 32.9965 	 -1.82802 	 68.8646 	 
H 	 33.6384 	 -1.87969 	 67.9855 	 
H 	 33.3944 	 -1.13616 	 69.6607 	 
C 	 31.6241 	 -1.44218 	 68.3329 	 
H 	 30.8197 	 -1.67925 	 68.987 	 
H 	 31.4522 	 -1.90937 	 67.3566 	 
C 	 31.6949 	 -0.0279159 	 68.1291 	 
H 	 32.4135 	 0.239356 	 67.2701 	 
H 	 31.8919 	 0.536271 	 68.9997 	 
H 	 30.6633 	 0.275095 	 67.8822 	 
H 	 32.863 	 -1.39489 	 75.4891 	 
H 	 33.5719 	 -6.65631 	 69.1127 	 
