34

S 	 -42.6315 	 49.2483 	 106.366 	 
C 	 -42.0511 	 48.11 	 105.178 	 
C 	 -41.22 	 48.8089 	 104.239 	 
C 	 -41.1091 	 50.1743 	 104.464 	 
C 	 -41.856 	 50.558 	 105.538 	 
H 	 -40.569 	 50.9631 	 103.916 	 
C 	 -40.2552 	 48.1146 	 103.172 	 
H 	 -40.7395 	 47.1054 	 103.246 	 
H 	 -39.2033 	 48.052 	 103.519 	 
C 	 -40.0549 	 48.7218 	 101.765 	 
H 	 -39.4265 	 49.5543 	 101.922 	 
H 	 -39.5299 	 48.0849 	 101.135 	 
C 	 -41.2453 	 49.2299 	 100.927 	 
H 	 -40.7618 	 49.6973 	 100.049 	 
H 	 -41.9647 	 48.4797 	 100.547 	 
H 	 -41.7962 	 49.9602 	 101.414 	 
S 	 -41.5745 	 52.5273 	 107.425 	 
C 	 -42.0398 	 54.1989 	 107.033 	 
C 	 -42.4496 	 54.3105 	 105.765 	 
C 	 -42.5916 	 53.0537 	 105.118 	 
C 	 -42.1261 	 51.9539 	 105.878 	 
H 	 -42.6779 	 55.193 	 105.3 	 
C 	 -43.2391 	 52.9589 	 103.72 	 
H 	 -43.0235 	 51.9633 	 103.299 	 
H 	 -42.8009 	 53.7191 	 103.037 	 
C 	 -44.7828 	 53.0332 	 103.658 	 
H 	 -45.337 	 52.244 	 104.194 	 
H 	 -44.9963 	 52.7917 	 102.596 	 
C 	 -45.3772 	 54.4738 	 103.919 	 
H 	 -46.3444 	 54.4911 	 103.312 	 
H 	 -44.7646 	 55.3238 	 103.762 	 
H 	 -45.6007 	 54.7001 	 104.935 	 
H 	 -42.0948 	 47.0207 	 105.202 	 
H 	 -41.9818 	 55.0014 	 107.852 	 
