34

S 	 -56.9381 	 51.5725 	 138.343 	 
C 	 -57.1519 	 53.2553 	 138.007 	 
C 	 -57.9672 	 53.8392 	 138.97 	 
C 	 -58.2798 	 52.8812 	 140.019 	 
C 	 -57.7988 	 51.5971 	 139.765 	 
H 	 -58.8597 	 53.0945 	 140.961 	 
C 	 -58.4006 	 55.2907 	 138.901 	 
H 	 -58.0847 	 55.6497 	 137.906 	 
H 	 -57.8442 	 55.8771 	 139.595 	 
C 	 -59.8765 	 55.5447 	 139.097 	 
H 	 -60.3297 	 55.3985 	 138.153 	 
H 	 -60.2408 	 54.9553 	 139.919 	 
C 	 -60.1383 	 57.0278 	 139.585 	 
H 	 -59.4543 	 57.764 	 139.282 	 
H 	 -61.1391 	 57.3176 	 139.386 	 
H 	 -60.0768 	 56.9702 	 140.681 	 
S 	 -56.8048 	 49.4791 	 141.216 	 
C 	 -58.014 	 48.511 	 142.046 	 
C 	 -59.3276 	 48.8611 	 141.694 	 
C 	 -59.3983 	 49.9459 	 140.805 	 
C 	 -58.1227 	 50.3794 	 140.466 	 
H 	 -60.1294 	 48.3233 	 142.078 	 
C 	 -60.6917 	 50.6151 	 140.575 	 
H 	 -60.5378 	 51.3694 	 139.883 	 
H 	 -60.9991 	 50.9912 	 141.546 	 
C 	 -61.5899 	 49.6324 	 139.822 	 
H 	 -61.7725 	 48.663 	 140.28 	 
H 	 -60.9541 	 49.2765 	 138.986 	 
C 	 -62.9305 	 50.2919 	 139.482 	 
H 	 -62.7001 	 51.0974 	 138.801 	 
H 	 -63.5658 	 50.6066 	 140.303 	 
H 	 -63.5756 	 49.6017 	 138.86 	 
H 	 -56.6165 	 53.7411 	 137.242 	 
H 	 -57.7237 	 47.5446 	 142.498 	 
