34

S 	 13.782 	 -14.0546 	 94.5413 	 
C 	 14.6756 	 -12.6095 	 94.7485 	 
C 	 13.8617 	 -11.5166 	 94.9038 	 
C 	 12.4901 	 -11.8336 	 94.686 	 
C 	 12.2816 	 -13.1557 	 94.3871 	 
H 	 11.7206 	 -11.1185 	 94.926 	 
C 	 14.2895 	 -10.0826 	 95.1528 	 
H 	 14.0148 	 -9.50429 	 94.2917 	 
H 	 15.4011 	 -9.98687 	 95.2955 	 
C 	 13.5076 	 -9.46643 	 96.2905 	 
H 	 13.8738 	 -8.36699 	 96.4043 	 
H 	 12.4689 	 -9.16666 	 96.0935 	 
C 	 13.5249 	 -10.1709 	 97.5725 	 
H 	 12.9706 	 -11.176 	 97.5192 	 
H 	 14.5716 	 -10.3458 	 97.8593 	 
H 	 13.1845 	 -9.59349 	 98.439 	 
S 	 10.825 	 -15.044 	 95.612 	 
C 	 9.14162 	 -15.2682 	 95.2741 	 
C 	 8.68022 	 -14.3022 	 94.4347 	 
C 	 9.72695 	 -13.5078 	 93.8416 	 
C 	 11.0112 	 -13.7768 	 94.4137 	 
H 	 7.58388 	 -14.2066 	 94.2248 	 
C 	 9.5674 	 -12.4151 	 92.8099 	 
H 	 9.84999 	 -12.7392 	 91.7867 	 
H 	 10.185 	 -11.5282 	 92.9779 	 
C 	 8.10158 	 -11.8657 	 92.7405 	 
H 	 7.61742 	 -12.0179 	 93.7506 	 
H 	 7.5612 	 -12.4364 	 91.9919 	 
C 	 7.99234 	 -10.4163 	 92.3091 	 
H 	 8.49726 	 -10.2993 	 91.3715 	 
H 	 8.39613 	 -9.743 	 93.0013 	 
H 	 7.01695 	 -10.147 	 92.1113 	 
H 	 15.7396 	 -12.5603 	 94.7203 	 
H 	 8.41263 	 -15.8731 	 95.8407 	 
