34

S 	 31.5108 	 4.66859 	 63.5475 	 
C 	 32.7027 	 5.46363 	 64.6521 	 
C 	 32.0414 	 6.46274 	 65.4042 	 
C 	 30.6505 	 6.57974 	 65.0753 	 
C 	 30.1468 	 5.52462 	 64.2928 	 
H 	 29.8439 	 7.14846 	 65.5523 	 
C 	 32.6362 	 7.21667 	 66.5475 	 
H 	 33.2428 	 6.55977 	 67.1723 	 
H 	 31.7892 	 7.58487 	 67.1426 	 
C 	 33.4892 	 8.41217 	 66.0737 	 
H 	 32.79 	 9.07319 	 65.5314 	 
H 	 33.8795 	 9.05347 	 66.9621 	 
C 	 34.6035 	 7.96465 	 65.1393 	 
H 	 35.1913 	 7.19658 	 65.5902 	 
H 	 34.2898 	 7.79314 	 64.166 	 
H 	 35.3474 	 8.75535 	 65.1314 	 
S 	 28.1793 	 4.84417 	 62.4845 	 
C 	 26.7541 	 4.1632 	 63.0054 	 
C 	 26.5491 	 4.38384 	 64.3374 	 
C 	 27.6529 	 4.98176 	 64.9548 	 
C 	 28.7328 	 5.16588 	 64.121 	 
H 	 25.7109 	 3.9005 	 64.7486 	 
C 	 27.7395 	 5.14728 	 66.4834 	 
H 	 28.7999 	 5.13377 	 66.7892 	 
H 	 27.1226 	 4.36703 	 66.9097 	 
C 	 27.2993 	 6.48732 	 67.1473 	 
H 	 26.1987 	 6.48538 	 67.0337 	 
H 	 27.7522 	 7.24622 	 66.4684 	 
C 	 27.8119 	 6.67498 	 68.5866 	 
H 	 27.1803 	 6.12202 	 69.2402 	 
H 	 27.675 	 7.64325 	 68.9789 	 
H 	 28.8646 	 6.43969 	 68.5923 	 
H 	 33.8185 	 5.36182 	 64.6884 	 
H 	 25.9366 	 3.89876 	 62.338 	 
