34

S 	 4.11469 	 -4.36717 	 74.7144 	 
C 	 4.287 	 -5.58623 	 75.9204 	 
C 	 3.62385 	 -5.19053 	 77.0879 	 
C 	 2.96776 	 -3.92559 	 76.9234 	 
C 	 2.92674 	 -3.43825 	 75.627 	 
H 	 2.43254 	 -3.4164 	 77.7012 	 
C 	 3.58543 	 -5.97679 	 78.319 	 
H 	 3.55902 	 -5.13058 	 79.0503 	 
H 	 4.53562 	 -6.50897 	 78.4452 	 
C 	 2.60875 	 -7.09843 	 78.6092 	 
H 	 2.81587 	 -7.71598 	 79.485 	 
H 	 1.54877 	 -6.79608 	 78.7713 	 
C 	 2.48463 	 -8.06742 	 77.3856 	 
H 	 1.84722 	 -8.83897 	 77.6408 	 
H 	 1.82762 	 -7.62466 	 76.6036 	 
H 	 3.4153 	 -8.47207 	 77.0178 	 
S 	 3.39592 	 -1.00852 	 74.2939 	 
C 	 2.01595 	 -0.000636033 	 73.956 	 
C 	 0.977649 	 -0.386793 	 74.7812 	 
C 	 1.13225 	 -1.64547 	 75.3337 	 
C 	 2.35041 	 -2.21571 	 75.0905 	 
H 	 0.151679 	 0.29375 	 74.9376 	 
C 	 0.110171 	 -2.08787 	 76.3586 	 
H 	 -0.157779 	 -1.35055 	 77.1075 	 
H 	 0.498067 	 -2.90073 	 76.9158 	 
C 	 -1.21599 	 -2.75562 	 75.9114 	 
H 	 -1.87241 	 -3.09325 	 76.7998 	 
H 	 -0.978586 	 -3.62789 	 75.3033 	 
C 	 -2.17578 	 -1.91254 	 75.0308 	 
H 	 -1.55718 	 -1.5575 	 74.2322 	 
H 	 -2.52826 	 -1.01682 	 75.546 	 
H 	 -3.02006 	 -2.62224 	 74.7724 	 
H 	 4.7476 	 -6.58928 	 75.8967 	 
H 	 2.05654 	 0.943754 	 73.4877 	 
