34

S 	 -3.05825 	 -16.7079 	 81.602 	 
C 	 -4.25999 	 -17.9408 	 81.0439 	 
C 	 -3.75673 	 -19.2473 	 81.1956 	 
C 	 -2.40338 	 -19.1996 	 81.6024 	 
C 	 -1.8694 	 -17.9237 	 81.7468 	 
H 	 -1.87296 	 -20.0347 	 81.9208 	 
C 	 -4.52729 	 -20.5266 	 80.7699 	 
H 	 -5.48709 	 -20.1366 	 80.4917 	 
H 	 -4.68167 	 -21.0114 	 81.6886 	 
C 	 -3.73733 	 -21.2621 	 79.6324 	 
H 	 -4.47404 	 -21.7176 	 78.8667 	 
H 	 -3.22608 	 -20.5931 	 78.9082 	 
C 	 -2.77917 	 -22.3727 	 80.0513 	 
H 	 -3.20781 	 -23.1557 	 80.7668 	 
H 	 -2.24683 	 -22.8048 	 79.183 	 
H 	 -1.99699 	 -21.9364 	 80.6543 	 
S 	 -0.508051 	 -17.4298 	 84.1727 	 
C 	 1.24538 	 -17.1788 	 84.0517 	 
C 	 1.63552 	 -17.1529 	 82.7439 	 
C 	 0.616742 	 -17.3047 	 81.7914 	 
C 	 -0.610372 	 -17.5797 	 82.4095 	 
H 	 2.63725 	 -16.8134 	 82.6084 	 
C 	 0.927345 	 -17.3526 	 80.3082 	 
H 	 1.39558 	 -16.4541 	 79.9769 	 
H 	 -0.0310705 	 -17.2623 	 79.8264 	 
C 	 1.77107 	 -18.6037 	 79.8076 	 
H 	 2.75102 	 -18.3969 	 80.1459 	 
H 	 1.93371 	 -18.6394 	 78.7488 	 
C 	 1.19469 	 -19.9184 	 80.3531 	 
H 	 1.16763 	 -19.9429 	 81.4116 	 
H 	 1.88867 	 -20.7551 	 80.0398 	 
H 	 0.164725 	 -20.1088 	 80.0019 	 
H 	 -5.27359 	 -17.845 	 80.8282 	 
H 	 1.85035 	 -17.01 	 84.9273 	 
