34

S 	 -15.8294 	 -6.82283 	 86.7642 	 
C 	 -14.7015 	 -6.46495 	 85.5173 	 
C 	 -13.7447 	 -5.54751 	 85.9322 	 
C 	 -13.9459 	 -5.21166 	 87.3347 	 
C 	 -15.0216 	 -5.8188 	 87.932 	 
H 	 -13.309 	 -4.55195 	 87.9281 	 
C 	 -12.6488 	 -4.91845 	 85.0014 	 
H 	 -11.9676 	 -4.2965 	 85.6285 	 
H 	 -13.2296 	 -4.16391 	 84.4484 	 
C 	 -11.9449 	 -5.92901 	 83.9954 	 
H 	 -11.7684 	 -6.96057 	 84.536 	 
H 	 -12.7068 	 -6.05306 	 83.2117 	 
C 	 -10.6797 	 -5.33519 	 83.4348 	 
H 	 -10.8864 	 -4.57764 	 82.6822 	 
H 	 -10.2257 	 -4.76903 	 84.2213 	 
H 	 -9.90434 	 -6.03723 	 82.9906 	 
S 	 -14.9899 	 -7.12021 	 90.2322 	 
C 	 -15.2798 	 -6.28494 	 91.7035 	 
C 	 -15.514 	 -4.92959 	 91.5585 	 
C 	 -15.5078 	 -4.54498 	 90.1972 	 
C 	 -15.3709 	 -5.70201 	 89.3295 	 
H 	 -15.747 	 -4.29182 	 92.3702 	 
C 	 -15.7493 	 -3.13168 	 89.8673 	 
H 	 -14.9432 	 -2.72428 	 89.2141 	 
H 	 -15.6035 	 -2.45929 	 90.7541 	 
C 	 -17.1431 	 -2.9488 	 89.1501 	 
H 	 -17.8991 	 -3.00773 	 89.8451 	 
H 	 -17.3037 	 -3.86596 	 88.5178 	 
C 	 -17.2551 	 -1.72369 	 88.2585 	 
H 	 -16.5683 	 -1.79406 	 87.4231 	 
H 	 -16.9357 	 -0.827559 	 88.777 	 
H 	 -18.2499 	 -1.53083 	 87.9126 	 
H 	 -14.6282 	 -6.81019 	 84.5658 	 
H 	 -15.0918 	 -6.57553 	 92.6676 	 
