34

S 	 34.7221 	 14.4402 	 72.5227 	 
C 	 33.0511 	 14.5932 	 72.0249 	 
C 	 32.7656 	 13.7101 	 70.9626 	 
C 	 33.8906 	 12.8446 	 70.7359 	 
C 	 34.941 	 13.0366 	 71.5679 	 
H 	 33.9421 	 12.0979 	 69.9454 	 
C 	 31.3542 	 13.4583 	 70.3587 	 
H 	 30.6583 	 13.7856 	 71.1233 	 
H 	 31.2509 	 12.3673 	 70.2055 	 
C 	 31.1063 	 14.1526 	 68.997 	 
H 	 30.9199 	 15.2302 	 69.1594 	 
H 	 32.0098 	 14.2258 	 68.4798 	 
C 	 29.8589 	 13.5166 	 68.3065 	 
H 	 29.0014 	 13.5385 	 68.9365 	 
H 	 29.5885 	 14.0189 	 67.4113 	 
H 	 30.0201 	 12.4648 	 68.1116 	 
S 	 37.6529 	 13.1617 	 71.1792 	 
C 	 38.6805 	 11.7124 	 71.361 	 
C 	 37.8271 	 10.62 	 71.4429 	 
C 	 36.4266 	 10.8972 	 71.525 	 
C 	 36.1599 	 12.2988 	 71.4972 	 
H 	 38.1983 	 9.63962 	 71.4855 	 
C 	 35.3644 	 9.8112 	 71.7221 	 
H 	 34.5652 	 10.3224 	 72.3167 	 
H 	 35.7574 	 8.9828 	 72.3904 	 
C 	 34.8705 	 9.11763 	 70.4176 	 
H 	 35.6316 	 9.00623 	 69.6549 	 
H 	 34.1596 	 9.72172 	 69.8782 	 
C 	 34.2559 	 7.73628 	 70.6237 	 
H 	 34.3454 	 7.08297 	 69.6962 	 
H 	 33.0998 	 7.68826 	 70.783 	 
H 	 34.7519 	 7.24025 	 71.4713 	 
H 	 32.2514 	 15.152 	 72.4579 	 
H 	 39.6884 	 11.6735 	 70.8918 	 
