34

S 	 8.14426 	 -13.0406 	 64.4669 	 
C 	 8.26173 	 -13.0636 	 66.181 	 
C 	 7.13492 	 -12.4835 	 66.8087 	 
C 	 6.1935 	 -12.0383 	 65.8631 	 
C 	 6.61363 	 -12.194 	 64.5423 	 
H 	 5.23743 	 -11.5502 	 66.092 	 
C 	 6.95308 	 -12.4937 	 68.294 	 
H 	 6.29366 	 -11.6804 	 68.5932 	 
H 	 7.86239 	 -12.114 	 68.8257 	 
C 	 6.42347 	 -13.8684 	 68.898 	 
H 	 7.25124 	 -14.5869 	 68.9199 	 
H 	 6.25949 	 -13.7333 	 69.9186 	 
C 	 5.0767 	 -14.3319 	 68.4593 	 
H 	 5.12863 	 -14.7186 	 67.4204 	 
H 	 4.58858 	 -15.1153 	 69.0401 	 
H 	 4.26825 	 -13.5552 	 68.519 	 
S 	 6.62626 	 -10.8412 	 62.1125 	 
C 	 5.18911 	 -10.8323 	 61.1781 	 
C 	 4.13233 	 -11.5225 	 61.784 	 
C 	 4.54125 	 -12.1169 	 62.9634 	 
C 	 5.86007 	 -11.948 	 63.3215 	 
H 	 3.14024 	 -11.3857 	 61.4335 	 
C 	 3.57004 	 -12.8695 	 63.8395 	 
H 	 2.88295 	 -12.098 	 64.373 	 
H 	 4.15226 	 -13.4271 	 64.5417 	 
C 	 2.75141 	 -13.9454 	 63.0539 	 
H 	 3.40797 	 -14.4199 	 62.3875 	 
H 	 2.05824 	 -13.4426 	 62.3527 	 
C 	 1.8603 	 -14.9574 	 63.8284 	 
H 	 1.56775 	 -15.7238 	 63.1175 	 
H 	 0.918523 	 -14.5485 	 63.985 	 
H 	 2.33515 	 -15.3108 	 64.7148 	 
H 	 9.13212 	 -13.4539 	 66.7386 	 
H 	 5.11692 	 -10.2159 	 60.2517 	 
