34

S 	 7.42777 	 -16.8141 	 55.2375 	 
C 	 8.68258 	 -16.4256 	 56.4416 	 
C 	 9.87786 	 -16.8046 	 56.0194 	 
C 	 9.8122 	 -17.5324 	 54.7561 	 
C 	 8.5643 	 -17.4686 	 54.1872 	 
H 	 10.5734 	 -17.957 	 54.2153 	 
C 	 11.1035 	 -16.5985 	 56.8612 	 
H 	 11.9321 	 -17.0145 	 56.3657 	 
H 	 11.0791 	 -17.273 	 57.6997 	 
C 	 11.2862 	 -15.1732 	 57.2648 	 
H 	 11.7621 	 -14.5233 	 56.5401 	 
H 	 10.2904 	 -14.7339 	 57.6386 	 
C 	 12.2703 	 -15.008 	 58.3929 	 
H 	 12.5112 	 -13.9707 	 58.7708 	 
H 	 11.8835 	 -15.4615 	 59.288 	 
H 	 13.2095 	 -15.4072 	 58.1601 	 
S 	 7.20616 	 -19.6591 	 53.131 	 
C 	 7.55007 	 -20.0908 	 51.4481 	 
C 	 8.27586 	 -19.1289 	 50.8545 	 
C 	 8.73972 	 -18.1088 	 51.7424 	 
C 	 8.24337 	 -18.2379 	 53.0365 	 
H 	 8.62435 	 -19.1764 	 49.8255 	 
C 	 9.64987 	 -16.9871 	 51.239 	 
H 	 9.83177 	 -17.1588 	 50.184 	 
H 	 10.6273 	 -17.144 	 51.6589 	 
C 	 9.14618 	 -15.5852 	 51.4446 	 
H 	 9.81387 	 -14.7544 	 51.1543 	 
H 	 9.01748 	 -15.6763 	 52.5397 	 
C 	 7.71205 	 -15.4093 	 50.8944 	 
H 	 7.34525 	 -14.3955 	 50.7448 	 
H 	 6.95926 	 -15.8752 	 51.5673 	 
H 	 7.5123 	 -15.9103 	 49.9281 	 
H 	 8.51143 	 -15.9382 	 57.3498 	 
H 	 7.24835 	 -20.9323 	 50.8027 	 
