34

S 	 -16.6739 	 -6.37502 	 82.7928 	 
C 	 -17.2573 	 -7.82679 	 82.157 	 
C 	 -17.9016 	 -8.56333 	 83.1342 	 
C 	 -18.2216 	 -7.74517 	 84.2718 	 
C 	 -17.6259 	 -6.50502 	 84.296 	 
H 	 -18.6907 	 -8.04783 	 85.2002 	 
C 	 -18.4145 	 -9.96556 	 82.9452 	 
H 	 -17.6381 	 -10.7193 	 83.217 	 
H 	 -18.4612 	 -10.0754 	 81.9005 	 
C 	 -19.8153 	 -10.3255 	 83.4688 	 
H 	 -20.0526 	 -11.3659 	 83.2707 	 
H 	 -19.759 	 -10.3336 	 84.6057 	 
C 	 -21.0604 	 -9.53264 	 82.9015 	 
H 	 -21.1764 	 -8.46671 	 83.2816 	 
H 	 -21.034 	 -9.43702 	 81.7791 	 
H 	 -21.9704 	 -10.1001 	 83.1984 	 
S 	 -19.3231 	 -4.79797 	 85.6744 	 
C 	 -18.6571 	 -3.71656 	 86.8764 	 
C 	 -17.3038 	 -3.87218 	 87.0967 	 
C 	 -16.7416 	 -4.77618 	 86.1329 	 
C 	 -17.7018 	 -5.42795 	 85.3111 	 
H 	 -16.8717 	 -3.21739 	 87.8471 	 
C 	 -15.2276 	 -4.92391 	 86.0362 	 
H 	 -14.771 	 -3.95076 	 86.2496 	 
H 	 -14.8704 	 -5.30446 	 85.0305 	 
C 	 -14.6676 	 -5.85472 	 87.1028 	 
H 	 -15.1289 	 -6.75485 	 86.8098 	 
H 	 -15.0152 	 -5.45181 	 88.0936 	 
C 	 -13.1792 	 -6.18201 	 87.0924 	 
H 	 -12.5302 	 -5.29589 	 87.096 	 
H 	 -12.9342 	 -6.81714 	 86.1943 	 
H 	 -12.9712 	 -6.95193 	 87.845 	 
H 	 -17.0539 	 -8.18387 	 81.1106 	 
H 	 -19.3627 	 -3.15958 	 87.594 	 
