34

S 	 -53.8966 	 55.2792 	 136.903 	 
C 	 -52.745 	 56.5162 	 136.367 	 
C 	 -52.7856 	 57.7185 	 137.057 	 
C 	 -53.8056 	 57.6198 	 138.168 	 
C 	 -54.4591 	 56.3698 	 138.218 	 
H 	 -54.0754 	 58.431 	 138.844 	 
C 	 -52.0582 	 58.9752 	 136.69 	 
H 	 -51.2672 	 58.7909 	 135.939 	 
H 	 -51.4702 	 59.3257 	 137.541 	 
C 	 -53.0319 	 60.1321 	 136.254 	 
H 	 -53.3095 	 60.1029 	 135.17 	 
H 	 -53.8895 	 60.1139 	 136.881 	 
C 	 -52.5276 	 61.57 	 136.522 	 
H 	 -51.5588 	 61.6403 	 136.078 	 
H 	 -53.3484 	 62.3401 	 136.126 	 
H 	 -52.3995 	 61.739 	 137.564 	 
S 	 -56.835 	 55.0818 	 138.511 	 
C 	 -57.8239 	 55.4227 	 139.897 	 
C 	 -57.0505 	 55.9525 	 140.925 	 
C 	 -55.7574 	 56.2812 	 140.502 	 
C 	 -55.5149 	 55.9495 	 139.132 	 
H 	 -57.5364 	 56.2494 	 141.853 	 
C 	 -54.7955 	 57.1343 	 141.323 	 
H 	 -55.0065 	 58.2212 	 141.126 	 
H 	 -53.7775 	 56.9494 	 140.939 	 
C 	 -54.7379 	 56.744 	 142.837 	 
H 	 -54.2041 	 55.8634 	 142.942 	 
H 	 -55.7341 	 56.6485 	 143.059 	 
C 	 -54.1826 	 57.8421 	 143.713 	 
H 	 -54.5672 	 58.7909 	 143.561 	 
H 	 -53.0988 	 57.9114 	 143.609 	 
H 	 -54.3362 	 57.6876 	 144.79 	 
H 	 -52.1054 	 56.3367 	 135.535 	 
H 	 -58.9009 	 55.2809 	 139.888 	 
