34

S 	 -68.3781 	 42.7833 	 125.521 	 
C 	 -68.6784 	 44.4553 	 125.915 	 
C 	 -67.5166 	 45.1362 	 126.11 	 
C 	 -66.3648 	 44.3002 	 125.738 	 
C 	 -66.6239 	 42.9921 	 125.495 	 
H 	 -65.3186 	 44.615 	 125.632 	 
C 	 -67.3769 	 46.676 	 126.222 	 
H 	 -68.2756 	 46.9773 	 126.766 	 
H 	 -67.3697 	 47.1124 	 125.302 	 
C 	 -66.1687 	 47.2367 	 127.037 	 
H 	 -66.0065 	 46.737 	 127.991 	 
H 	 -65.3249 	 47.0128 	 126.33 	 
C 	 -66.2608 	 48.7865 	 127.21 	 
H 	 -65.666 	 49.057 	 128.046 	 
H 	 -66.0197 	 49.3394 	 126.29 	 
H 	 -67.2877 	 48.9889 	 127.58 	 
S 	 -64.4588 	 41.4981 	 126.363 	 
C 	 -63.8018 	 40.2997 	 125.353 	 
C 	 -64.3834 	 40.2729 	 124.079 	 
C 	 -65.5224 	 41.147 	 124.014 	 
C 	 -65.6347 	 41.9462 	 125.146 	 
H 	 -64.129 	 39.5378 	 123.399 	 
C 	 -66.4068 	 41.1829 	 122.744 	 
H 	 -66.668 	 42.1729 	 122.436 	 
H 	 -67.3352 	 40.7673 	 122.997 	 
C 	 -65.7667 	 40.5805 	 121.525 	 
H 	 -65.4064 	 39.5216 	 121.653 	 
H 	 -64.9277 	 41.1558 	 121.324 	 
C 	 -66.7349 	 40.6826 	 120.345 	 
H 	 -66.4578 	 40.0374 	 119.55 	 
H 	 -66.95 	 41.7112 	 120.098 	 
H 	 -67.6975 	 40.288 	 120.754 	 
H 	 -69.738 	 44.8121 	 125.857 	 
H 	 -62.8829 	 39.8525 	 125.637 	 
