34

S 	 4.85046 	 -16.3145 	 55.1009 	 
C 	 5.53983 	 -15.5241 	 56.5171 	 
C 	 6.85675 	 -15.7813 	 56.681 	 
C 	 7.3274 	 -16.6868 	 55.635 	 
C 	 6.39247 	 -16.9117 	 54.6298 	 
H 	 8.2916 	 -17.1492 	 55.6181 	 
C 	 7.70756 	 -15.0906 	 57.7063 	 
H 	 8.53871 	 -15.8178 	 58.0591 	 
H 	 7.25283 	 -14.9784 	 58.6885 	 
C 	 8.25002 	 -13.6438 	 57.3317 	 
H 	 8.51508 	 -13.5676 	 56.303 	 
H 	 7.40854 	 -12.9083 	 57.4569 	 
C 	 9.30046 	 -13.1716 	 58.2477 	 
H 	 10.2746 	 -13.7901 	 58.2026 	 
H 	 9.61161 	 -12.1276 	 57.8903 	 
H 	 8.92913 	 -13.1808 	 59.2538 	 
S 	 5.1639 	 -18.587 	 53.0923 	 
C 	 5.98172 	 -19.6862 	 52.0299 	 
C 	 7.19024 	 -19.11 	 51.7398 	 
C 	 7.59243 	 -18.0971 	 52.653 	 
C 	 6.55857 	 -17.7185 	 53.489 	 
H 	 7.80547 	 -19.4519 	 50.982 	 
C 	 9.04163 	 -17.7014 	 52.6191 	 
H 	 9.62863 	 -18.4497 	 52.0365 	 
H 	 9.39236 	 -17.6153 	 53.6448 	 
C 	 9.19072 	 -16.3049 	 51.9937 	 
H 	 10.1922 	 -16.0233 	 52.23 	 
H 	 8.49744 	 -15.6428 	 52.4685 	 
C 	 8.96801 	 -16.2997 	 50.4595 	 
H 	 9.72937 	 -16.8059 	 49.9327 	 
H 	 8.85693 	 -15.2852 	 50.0358 	 
H 	 8.08715 	 -16.9227 	 50.3383 	 
H 	 5.00955 	 -15.0572 	 57.4085 	 
H 	 5.57167 	 -20.5521 	 51.3931 	 
