34

S 	 -4.48664 	 50.3909 	 41.4173 	 
C 	 -6.06844 	 50.8274 	 40.9094 	 
C 	 -6.73293 	 49.6574 	 40.53 	 
C 	 -5.95367 	 48.4744 	 40.6054 	 
C 	 -4.64252 	 48.7922 	 40.8942 	 
H 	 -6.14284 	 47.4119 	 40.4387 	 
C 	 -8.29495 	 49.6394 	 40.3785 	 
H 	 -8.54848 	 49.4516 	 39.3854 	 
H 	 -8.59815 	 50.6116 	 40.6329 	 
C 	 -9.10367 	 48.7468 	 41.3739 	 
H 	 -10.1848 	 48.932 	 41.3821 	 
H 	 -9.04691 	 47.7011 	 41.0769 	 
C 	 -8.5664 	 48.9017 	 42.7793 	 
H 	 -8.92362 	 49.8263 	 43.2407 	 
H 	 -8.90718 	 48.1405 	 43.4073 	 
H 	 -7.49829 	 48.9919 	 42.9182 	 
S 	 -2.24268 	 47.8821 	 39.7237 	 
C 	 -1.30369 	 46.6082 	 40.6051 	 
C 	 -1.95051 	 46.3919 	 41.8481 	 
C 	 -3.16119 	 47.1541 	 42.1032 	 
C 	 -3.51437 	 47.9079 	 41.0154 	 
H 	 -1.46487 	 45.7187 	 42.5418 	 
C 	 -3.89583 	 46.8965 	 43.4132 	 
H 	 -3.37094 	 46.0912 	 43.9395 	 
H 	 -4.94312 	 46.3654 	 43.1983 	 
C 	 -3.99516 	 48.0381 	 44.4431 	 
H 	 -4.48303 	 48.9083 	 43.9521 	 
H 	 -2.96767 	 48.3736 	 44.7425 	 
C 	 -4.73033 	 47.8232 	 45.714 	 
H 	 -4.48537 	 48.4063 	 46.5162 	 
H 	 -4.46135 	 46.826 	 45.9658 	 
H 	 -5.83371 	 47.9296 	 45.6927 	 
H 	 -6.34916 	 51.8771 	 40.9089 	 
H 	 -0.346274 	 46.149 	 40.3339 	 
