34

S 	 12.6872 	 1.68916 	 67.6595 	 
C 	 11.972 	 2.13112 	 66.1922 	 
C 	 12.3951 	 1.40869 	 65.0928 	 
C 	 13.4583 	 0.541625 	 65.5307 	 
C 	 13.737 	 0.530356 	 66.8739 	 
H 	 14.0504 	 -0.11394 	 64.841 	 
C 	 11.9691 	 1.58472 	 63.6731 	 
H 	 11.0969 	 2.08655 	 63.5821 	 
H 	 11.7799 	 0.61431 	 63.1531 	 
C 	 12.9097 	 2.48903 	 62.817 	 
H 	 12.3585 	 2.7961 	 61.9327 	 
H 	 13.2509 	 3.24508 	 63.5297 	 
C 	 14.1021 	 1.6107 	 62.3152 	 
H 	 13.8607 	 0.744272 	 61.7767 	 
H 	 14.6912 	 2.1338 	 61.6306 	 
H 	 14.835 	 1.271 	 63.0725 	 
S 	 14.3783 	 -1.20743 	 68.8675 	 
C 	 16.0234 	 -1.9023 	 68.8999 	 
C 	 16.8182 	 -1.35127 	 67.9152 	 
C 	 16.1064 	 -0.442857 	 67.0863 	 
C 	 14.8302 	 -0.192379 	 67.5139 	 
H 	 17.8725 	 -1.54372 	 67.8352 	 
C 	 16.7631 	 0.157572 	 65.8895 	 
H 	 16.3024 	 -0.293646 	 65.0355 	 
H 	 17.7894 	 -0.241852 	 65.8505 	 
C 	 16.7782 	 1.70737 	 65.7293 	 
H 	 15.8277 	 2.11333 	 65.4938 	 
H 	 17.4072 	 1.95296 	 64.8834 	 
C 	 17.4001 	 2.45825 	 66.9097 	 
H 	 17.3523 	 3.48261 	 66.8129 	 
H 	 18.4602 	 2.24288 	 66.9748 	 
H 	 16.8571 	 2.17477 	 67.7851 	 
H 	 11.3842 	 3.07249 	 65.9626 	 
H 	 16.4184 	 -2.54204 	 69.6595 	 
