34

S 	 -39.0476 	 26.8433 	 77.8874 	 
C 	 -40.2654 	 28.0054 	 78.3607 	 
C 	 -41.4328 	 27.3503 	 78.6454 	 
C 	 -41.4776 	 25.9809 	 78.1173 	 
C 	 -40.2856 	 25.5404 	 77.5895 	 
H 	 -42.2921 	 25.2862 	 78.1757 	 
C 	 -42.6348 	 27.9634 	 79.332 	 
H 	 -42.5888 	 27.7114 	 80.4075 	 
H 	 -43.5503 	 27.4843 	 78.9843 	 
C 	 -42.7345 	 29.5087 	 79.2003 	 
H 	 -42.0248 	 30.1095 	 79.7809 	 
H 	 -42.6399 	 29.723 	 78.1482 	 
C 	 -44.1348 	 30.0488 	 79.5171 	 
H 	 -44.4778 	 29.8303 	 80.514 	 
H 	 -44.095 	 31.0716 	 79.2271 	 
H 	 -44.9178 	 29.5496 	 78.845 	 
S 	 -39.4284 	 23.713 	 75.6536 	 
C 	 -39.1309 	 22.094 	 76.1001 	 
C 	 -39.4363 	 21.8617 	 77.4312 	 
C 	 -39.7761 	 23.0585 	 78.1836 	 
C 	 -39.9541 	 24.1438 	 77.3068 	 
H 	 -39.2543 	 20.8627 	 77.7778 	 
C 	 -40.0453 	 22.9473 	 79.6338 	 
H 	 -39.7 	 21.9324 	 79.8336 	 
H 	 -41.1148 	 22.936 	 79.8574 	 
C 	 -39.1611 	 23.9042 	 80.5186 	 
H 	 -39.2479 	 24.9536 	 80.1737 	 
H 	 -38.0666 	 23.7271 	 80.2087 	 
C 	 -39.4337 	 23.8456 	 82.1018 	 
H 	 -40.3262 	 24.3986 	 82.4492 	 
H 	 -38.4543 	 24.2466 	 82.5166 	 
H 	 -39.455 	 22.8283 	 82.5022 	 
H 	 -40.0028 	 29.0344 	 78.5881 	 
H 	 -38.9166 	 21.3176 	 75.4243 	 
