34

S 	 -67.4353 	 38.6323 	 141.095 	 
C 	 -69.0259 	 38.3086 	 140.388 	 
C 	 -68.9175 	 37.5661 	 139.164 	 
C 	 -67.5699 	 37.5939 	 138.725 	 
C 	 -66.6198 	 38.0113 	 139.7 	 
H 	 -67.2228 	 37.0746 	 137.786 	 
C 	 -70.0337 	 36.7998 	 138.391 	 
H 	 -70.9638 	 37.3943 	 138.632 	 
H 	 -69.9948 	 35.7947 	 138.739 	 
C 	 -69.7849 	 36.7412 	 136.844 	 
H 	 -69.6439 	 37.8343 	 136.453 	 
H 	 -68.8449 	 36.3163 	 136.61 	 
C 	 -70.7094 	 35.7788 	 135.998 	 
H 	 -70.8648 	 34.8269 	 136.507 	 
H 	 -71.5769 	 36.29 	 135.868 	 
H 	 -70.4087 	 35.5568 	 134.983 	 
S 	 -64.1979 	 37.7165 	 140.987 	 
C 	 -62.6828 	 38.1249 	 140.147 	 
C 	 -62.9285 	 38.3198 	 138.845 	 
C 	 -64.2927 	 38.3875 	 138.484 	 
C 	 -65.1667 	 38.0502 	 139.543 	 
H 	 -62.0994 	 38.4767 	 138.22 	 
C 	 -64.7234 	 38.6891 	 137.116 	 
H 	 -65.7124 	 38.1924 	 136.962 	 
H 	 -64.0985 	 38.0783 	 136.511 	 
C 	 -64.6899 	 40.0812 	 136.554 	 
H 	 -64.2396 	 39.9717 	 135.566 	 
H 	 -64.033 	 40.6364 	 137.181 	 
C 	 -66.128 	 40.632 	 136.45 	 
H 	 -66.7289 	 40.6254 	 137.312 	 
H 	 -66.6164 	 39.9781 	 135.705 	 
H 	 -66.2577 	 41.6659 	 136.018 	 
H 	 -69.9789 	 38.4976 	 140.931 	 
H 	 -61.7383 	 37.9777 	 140.595 	 
