34

S 	 -49.1996 	 7.97776 	 94.3956 	 
C 	 -48.7846 	 6.92797 	 95.7803 	 
C 	 -48.6231 	 5.57646 	 95.3699 	 
C 	 -49.0102 	 5.46668 	 93.9857 	 
C 	 -49.4214 	 6.62471 	 93.372 	 
H 	 -49.0051 	 4.51217 	 93.5047 	 
C 	 -48.1156 	 4.39274 	 96.1999 	 
H 	 -47.6359 	 4.7613 	 97.0634 	 
H 	 -47.3149 	 4.01736 	 95.5781 	 
C 	 -49.1663 	 3.32347 	 96.6918 	 
H 	 -48.5849 	 2.65733 	 97.3333 	 
H 	 -49.8869 	 3.76474 	 97.3558 	 
C 	 -49.7632 	 2.46259 	 95.5681 	 
H 	 -50.0551 	 3.12946 	 94.7434 	 
H 	 -49.1803 	 1.5318 	 95.3466 	 
H 	 -50.7177 	 2.16404 	 96.0113 	 
S 	 -51.3768 	 6.42388 	 91.4502 	 
C 	 -51.0762 	 6.9709 	 89.8296 	 
C 	 -49.7892 	 7.38533 	 89.6951 	 
C 	 -49.0569 	 7.30451 	 90.9155 	 
C 	 -49.769 	 6.77226 	 91.9484 	 
H 	 -49.513 	 7.84191 	 88.7211 	 
C 	 -47.5834 	 7.76735 	 91.0162 	 
H 	 -47.0305 	 7.62306 	 90.0797 	 
H 	 -47.1407 	 7.05908 	 91.7332 	 
C 	 -47.2504 	 9.28905 	 91.559 	 
H 	 -46.0894 	 9.37778 	 91.5083 	 
H 	 -47.5435 	 9.42966 	 92.6728 	 
C 	 -47.8698 	 10.3927 	 90.6554 	 
H 	 -48.96 	 10.374 	 90.616 	 
H 	 -47.4283 	 10.2884 	 89.6625 	 
H 	 -47.5169 	 11.3779 	 90.9193 	 
H 	 -48.7333 	 7.17089 	 96.8341 	 
H 	 -51.8518 	 6.84424 	 89.0924 	 
