34

S 	 -56.4947 	 40.5438 	 114.694 	 
C 	 -55.3557 	 40.8367 	 113.428 	 
C 	 -55.9745 	 41.6385 	 112.468 	 
C 	 -57.3497 	 41.8504 	 112.675 	 
C 	 -57.8034 	 41.3073 	 113.846 	 
H 	 -58.0128 	 42.479 	 112.115 	 
C 	 -55.2612 	 42.1384 	 111.267 	 
H 	 -55.6163 	 41.5609 	 110.452 	 
H 	 -54.1703 	 41.9065 	 111.351 	 
C 	 -55.4083 	 43.6723 	 110.937 	 
H 	 -55.1005 	 43.7796 	 109.867 	 
H 	 -56.3691 	 44.0925 	 110.853 	 
C 	 -54.4171 	 44.4832 	 111.741 	 
H 	 -54.7719 	 44.6617 	 112.766 	 
H 	 -53.4493 	 44.0238 	 111.824 	 
H 	 -54.2636 	 45.4999 	 111.286 	 
S 	 -60.166 	 39.7372 	 113.969 	 
C 	 -61.4572 	 40.3769 	 114.948 	 
C 	 -61.258 	 41.6336 	 115.325 	 
C 	 -59.9512 	 42.1221 	 114.967 	 
C 	 -59.177 	 41.2161 	 114.283 	 
H 	 -62.0338 	 42.1221 	 115.808 	 
C 	 -59.4588 	 43.437 	 115.454 	 
H 	 -58.347 	 43.4667 	 115.526 	 
H 	 -59.7936 	 43.389 	 116.521 	 
C 	 -59.8866 	 44.6251 	 114.555 	 
H 	 -60.9275 	 44.6554 	 114.608 	 
H 	 -59.6549 	 44.3625 	 113.5 	 
C 	 -59.2283 	 45.9094 	 115.086 	 
H 	 -59.5936 	 46.8558 	 114.654 	 
H 	 -58.1266 	 45.9745 	 114.812 	 
H 	 -59.252 	 45.972 	 116.151 	 
H 	 -54.3914 	 40.3644 	 113.381 	 
H 	 -62.401 	 39.8944 	 115.185 	 
