34

S 	 -82.9879 	 48.583 	 137.025 	 
C 	 -83.4207 	 47.0392 	 137.809 	 
C 	 -82.6439 	 46.8622 	 138.956 	 
C 	 -81.6756 	 47.9136 	 139.152 	 
C 	 -81.7042 	 48.7934 	 138.138 	 
H 	 -80.9596 	 48.1066 	 140.01 	 
C 	 -82.639 	 45.7551 	 139.976 	 
H 	 -81.9463 	 45.9462 	 140.851 	 
H 	 -82.3519 	 44.8288 	 139.454 	 
C 	 -84.053 	 45.5048 	 140.571 	 
H 	 -84.9083 	 45.655 	 139.829 	 
H 	 -84.0728 	 44.4568 	 140.529 	 
C 	 -84.2932 	 46.3436 	 141.815 	 
H 	 -84.4963 	 47.4281 	 141.531 	 
H 	 -85.1478 	 45.9324 	 142.414 	 
H 	 -83.3792 	 46.4515 	 142.403 	 
S 	 -81.3623 	 51.4827 	 138.361 	 
C 	 -79.7894 	 52.1112 	 138.357 	 
C 	 -78.8456 	 51.2165 	 137.934 	 
C 	 -79.4187 	 49.9107 	 137.743 	 
C 	 -80.7587 	 49.9151 	 138.034 	 
H 	 -77.8767 	 51.554 	 137.677 	 
C 	 -78.5819 	 48.6874 	 137.526 	 
H 	 -78.7007 	 48.3326 	 136.445 	 
H 	 -78.9505 	 47.8196 	 138.124 	 
C 	 -77.0465 	 48.8259 	 137.8 	 
H 	 -76.7186 	 49.6641 	 137.235 	 
H 	 -76.4979 	 48.0082 	 137.311 	 
C 	 -76.6692 	 48.8651 	 139.357 	 
H 	 -77.2904 	 49.6845 	 139.844 	 
H 	 -75.6595 	 49.112 	 139.615 	 
H 	 -76.9741 	 48.047 	 139.965 	 
H 	 -84.1603 	 46.2988 	 137.439 	 
H 	 -79.6535 	 53.1958 	 138.237 	 
