34

S 	 -119.36 	 48.2691 	 130.985 	 
C 	 -118.792 	 49.0913 	 132.426 	 
C 	 -117.579 	 48.5815 	 132.838 	 
C 	 -117.119 	 47.5731 	 131.999 	 
C 	 -117.842 	 47.3633 	 130.848 	 
H 	 -116.171 	 47.032 	 132.18 	 
C 	 -116.989 	 48.9825 	 134.155 	 
H 	 -116.53 	 49.9368 	 134.215 	 
H 	 -116.168 	 48.371 	 134.29 	 
C 	 -117.894 	 48.9223 	 135.444 	 
H 	 -117.329 	 49.3552 	 136.297 	 
H 	 -118.792 	 49.5312 	 135.382 	 
C 	 -118.264 	 47.4702 	 135.75 	 
H 	 -118.682 	 47.3223 	 136.725 	 
H 	 -119.174 	 47.2148 	 135.175 	 
H 	 -117.523 	 46.7822 	 135.552 	 
S 	 -118.673 	 45.5612 	 129.001 	 
C 	 -117.471 	 44.6557 	 128.112 	 
C 	 -116.323 	 45.3884 	 128.03 	 
C 	 -116.257 	 46.4731 	 128.97 	 
C 	 -117.475 	 46.5986 	 129.698 	 
H 	 -115.701 	 45.0726 	 127.191 	 
C 	 -115.007 	 47.2813 	 129.077 	 
H 	 -114.496 	 46.6893 	 129.796 	 
H 	 -115.386 	 48.1309 	 129.593 	 
C 	 -114.18 	 47.6081 	 127.763 	 
H 	 -113.781 	 46.7215 	 127.45 	 
H 	 -113.352 	 48.3116 	 128.083 	 
C 	 -114.961 	 48.2632 	 126.68 	 
H 	 -115.2 	 49.3382 	 126.957 	 
H 	 -115.87 	 47.7969 	 126.379 	 
H 	 -114.277 	 48.3291 	 125.854 	 
H 	 -119.349 	 49.8029 	 133.063 	 
H 	 -117.66 	 43.9068 	 127.438 	 
