34

S 	 24.3122 	 -0.249275 	 86.0891 	 
C 	 25.0443 	 1.23011 	 85.789 	 
C 	 24.0778 	 2.22349 	 85.7078 	 
C 	 22.7363 	 1.80964 	 86.0494 	 
C 	 22.7357 	 0.432635 	 86.2411 	 
H 	 21.8029 	 2.30429 	 86.1319 	 
C 	 24.4175 	 3.67278 	 85.4501 	 
H 	 25.3553 	 3.63528 	 84.9495 	 
H 	 24.5738 	 4.18523 	 86.4218 	 
C 	 23.4129 	 4.58053 	 84.6886 	 
H 	 23.2823 	 4.14955 	 83.6907 	 
H 	 22.4141 	 4.59747 	 85.141 	 
C 	 23.9833 	 6.00684 	 84.4728 	 
H 	 23.8842 	 6.5376 	 85.4548 	 
H 	 24.9987 	 5.98848 	 84.0442 	 
H 	 23.3465 	 6.62413 	 83.7551 	 
S 	 21.7454 	 -0.941763 	 88.3776 	 
C 	 20.2049 	 -1.68811 	 88.251 	 
C 	 19.6752 	 -1.56259 	 86.9814 	 
C 	 20.5312 	 -0.787318 	 86.13 	 
C 	 21.6735 	 -0.373761 	 86.7756 	 
H 	 18.69 	 -1.89447 	 86.693 	 
C 	 20.156 	 -0.429812 	 84.693 	 
H 	 20.4003 	 0.636792 	 84.6103 	 
H 	 19.0802 	 -0.559127 	 84.5121 	 
C 	 20.9679 	 -1.12453 	 83.5122 	 
H 	 20.6877 	 -2.14636 	 83.3601 	 
H 	 22.0017 	 -1.16804 	 83.9152 	 
C 	 20.966 	 -0.433149 	 82.1653 	 
H 	 21.7746 	 -0.945375 	 81.5654 	 
H 	 21.1886 	 0.597594 	 82.2913 	 
H 	 20.0148 	 -0.517631 	 81.5782 	 
H 	 26.0835 	 1.35375 	 85.8299 	 
H 	 19.5707 	 -1.94566 	 89.096 	 
