34

S 	 -33.1319 	 30.7383 	 42.3714 	 
C 	 -31.7385 	 29.8122 	 42.2193 	 
C 	 -31.2341 	 29.3822 	 43.4445 	 
C 	 -32.0695 	 29.8629 	 44.4924 	 
C 	 -33.0708 	 30.7436 	 44.1652 	 
H 	 -31.7613 	 29.5568 	 45.4861 	 
C 	 -30.0476 	 28.4517 	 43.6515 	 
H 	 -29.7713 	 27.7907 	 42.8382 	 
H 	 -30.3726 	 27.8413 	 44.5267 	 
C 	 -28.7346 	 29.2344 	 43.9564 	 
H 	 -28.9496 	 29.6454 	 44.9306 	 
H 	 -27.8596 	 28.5231 	 44.0285 	 
C 	 -28.3773 	 30.2784 	 42.8618 	 
H 	 -27.8578 	 29.8201 	 42.0839 	 
H 	 -29.1057 	 31.0692 	 42.6095 	 
H 	 -27.5313 	 30.8894 	 43.1604 	 
S 	 -35.678 	 31.6149 	 44.4747 	 
C 	 -36.0621 	 32.8622 	 45.704 	 
C 	 -34.9458 	 33.1196 	 46.448 	 
C 	 -33.8124 	 32.358 	 46.0721 	 
C 	 -33.9461 	 31.6412 	 44.9098 	 
H 	 -35.1212 	 33.9173 	 47.1784 	 
C 	 -32.4423 	 32.5746 	 46.883 	 
H 	 -32.1941 	 33.6258 	 46.6792 	 
H 	 -31.701 	 31.9766 	 46.3027 	 
C 	 -32.5294 	 32.3073 	 48.3852 	 
H 	 -33.37 	 32.9176 	 48.7364 	 
H 	 -31.6176 	 32.7675 	 48.8481 	 
C 	 -32.6336 	 30.797 	 48.5908 	 
H 	 -31.8181 	 30.2676 	 48.0906 	 
H 	 -33.5697 	 30.4835 	 48.2204 	 
H 	 -32.5174 	 30.5102 	 49.6243 	 
H 	 -31.2917 	 29.613 	 41.2046 	 
H 	 -36.9926 	 33.2738 	 46.0016 	 
