34

S 	 -18.3541 	 -5.77204 	 87.6519 	 
C 	 -17.8968 	 -4.35913 	 86.631 	 
C 	 -16.6559 	 -3.8706 	 87.0976 	 
C 	 -16.3171 	 -4.42695 	 88.3414 	 
C 	 -17.0506 	 -5.54314 	 88.7427 	 
H 	 -15.4737 	 -4.16918 	 88.941 	 
C 	 -15.7782 	 -2.89962 	 86.3842 	 
H 	 -15.4405 	 -2.28617 	 87.2132 	 
H 	 -16.2789 	 -2.27152 	 85.6444 	 
C 	 -14.515 	 -3.4866 	 85.7455 	 
H 	 -13.9797 	 -4.04023 	 86.5219 	 
H 	 -14.7086 	 -4.23379 	 84.9974 	 
C 	 -13.5855 	 -2.34463 	 85.1635 	 
H 	 -14.2832 	 -1.81617 	 84.4472 	 
H 	 -13.2278 	 -1.61158 	 85.9233 	 
H 	 -12.6847 	 -2.78195 	 84.5955 	 
S 	 -15.7339 	 -7.59439 	 89.8388 	 
C 	 -15.6574 	 -7.85416 	 91.5591 	 
C 	 -16.5789 	 -7.00008 	 92.1725 	 
C 	 -17.2011 	 -6.08334 	 91.2752 	 
C 	 -16.8622 	 -6.29086 	 89.9227 	 
H 	 -16.8081 	 -7.12662 	 93.1935 	 
C 	 -18.3251 	 -5.19857 	 91.844 	 
H 	 -19.0394 	 -5.98748 	 92.1491 	 
H 	 -18.9108 	 -4.61467 	 91.0684 	 
C 	 -17.9489 	 -4.31267 	 93.0633 	 
H 	 -17.0445 	 -3.80525 	 92.9685 	 
H 	 -17.6412 	 -4.98149 	 93.8978 	 
C 	 -19.076 	 -3.44804 	 93.6182 	 
H 	 -19.9735 	 -3.93204 	 93.9099 	 
H 	 -19.3921 	 -2.68483 	 92.9212 	 
H 	 -18.7897 	 -2.7757 	 94.4925 	 
H 	 -18.3323 	 -4.15817 	 85.6382 	 
H 	 -15.2067 	 -8.70347 	 92.13 	 
