34

S 	 -56.4065 	 51.0428 	 137.381 	 
C 	 -56.7481 	 52.7342 	 137.275 	 
C 	 -57.3947 	 53.2802 	 138.368 	 
C 	 -57.7253 	 52.2388 	 139.296 	 
C 	 -57.3625 	 50.9546 	 138.844 	 
H 	 -58.2926 	 52.2969 	 140.227 	 
C 	 -57.8798 	 54.6912 	 138.615 	 
H 	 -57.0207 	 55.2889 	 138.311 	 
H 	 -57.9536 	 54.8595 	 139.69 	 
C 	 -59.1871 	 55.0778 	 137.788 	 
H 	 -58.9945 	 54.7685 	 136.761 	 
H 	 -59.9562 	 54.4261 	 138.182 	 
C 	 -59.5822 	 56.5577 	 137.922 	 
H 	 -58.8266 	 57.2825 	 137.603 	 
H 	 -60.4925 	 56.6429 	 137.292 	 
H 	 -60.0052 	 56.885 	 138.842 	 
S 	 -56.2702 	 48.6334 	 139.777 	 
C 	 -57.1717 	 47.4485 	 140.725 	 
C 	 -58.3951 	 47.9741 	 140.991 	 
C 	 -58.7256 	 49.2043 	 140.306 	 
C 	 -57.6589 	 49.6653 	 139.506 	 
H 	 -59.1365 	 47.5451 	 141.694 	 
C 	 -60.0207 	 50.0259 	 140.479 	 
H 	 -60.835 	 49.3651 	 140.348 	 
H 	 -60.0298 	 50.8236 	 139.756 	 
C 	 -60.0362 	 50.6572 	 141.918 	 
H 	 -59.2983 	 51.4461 	 142.046 	 
H 	 -59.7919 	 49.8685 	 142.628 	 
C 	 -61.4286 	 51.0716 	 142.495 	 
H 	 -62.2206 	 50.3344 	 142.416 	 
H 	 -61.7699 	 51.9576 	 141.941 	 
H 	 -61.3454 	 51.3332 	 143.535 	 
H 	 -56.5069 	 53.341 	 136.428 	 
H 	 -56.7853 	 46.5951 	 141.209 	 
