34

S 	 -58.0215 	 45.3267 	 136.242 	 
C 	 -56.4614 	 45.9828 	 136.396 	 
C 	 -56.0668 	 46.7999 	 135.381 	 
C 	 -57.0503 	 46.8823 	 134.375 	 
C 	 -58.2178 	 46.2486 	 134.69 	 
H 	 -56.8666 	 47.4909 	 133.5 	 
C 	 -54.7574 	 47.651 	 135.315 	 
H 	 -54.255 	 47.4592 	 134.356 	 
H 	 -54.0741 	 47.2843 	 136.088 	 
C 	 -54.844 	 49.1408 	 135.419 	 
H 	 -55.2627 	 49.551 	 134.481 	 
H 	 -55.5426 	 49.2819 	 136.191 	 
C 	 -53.5159 	 49.6968 	 135.831 	 
H 	 -53.5188 	 50.7423 	 135.451 	 
H 	 -53.3663 	 49.7154 	 136.913 	 
H 	 -52.6793 	 49.1331 	 135.434 	 
S 	 -60.8703 	 46.5488 	 135.183 	 
C 	 -62.0064 	 46.4878 	 133.884 	 
C 	 -61.3643 	 46.4361 	 132.647 	 
C 	 -59.953 	 46.4606 	 132.712 	 
C 	 -59.4888 	 46.4125 	 134.089 	 
H 	 -61.9446 	 46.4114 	 131.725 	 
C 	 -59.1998 	 46.4081 	 131.376 	 
H 	 -59.0585 	 45.4048 	 131.017 	 
H 	 -58.2087 	 46.6853 	 131.608 	 
C 	 -59.7362 	 47.2287 	 130.135 	 
H 	 -60.2163 	 48.1168 	 130.417 	 
H 	 -60.5149 	 46.6594 	 129.724 	 
C 	 -58.8243 	 47.5154 	 128.956 	 
H 	 -57.8839 	 48.1035 	 129.168 	 
H 	 -59.3525 	 48.0752 	 128.193 	 
H 	 -58.6069 	 46.5903 	 128.373 	 
H 	 -55.7916 	 45.7806 	 137.307 	 
H 	 -63.0624 	 46.4606 	 134.009 	 
