34

S 	 36.3978 	 -3.05617 	 70.5427 	 
C 	 36.1118 	 -1.73224 	 71.6063 	 
C 	 37.265 	 -0.887292 	 71.6479 	 
C 	 38.3829 	 -1.53392 	 70.9808 	 
C 	 38.1201 	 -2.73709 	 70.3164 	 
H 	 39.3758 	 -1.17508 	 70.9677 	 
C 	 37.278 	 0.482334 	 72.3128 	 
H 	 37.8576 	 1.20876 	 71.6812 	 
H 	 37.8361 	 0.362572 	 73.2738 	 
C 	 35.8884 	 1.04734 	 72.3793 	 
H 	 35.452 	 1.03916 	 71.4545 	 
H 	 35.197 	 0.624434 	 73.0827 	 
C 	 35.8826 	 2.5641 	 72.7812 	 
H 	 36.5572 	 3.19113 	 72.2854 	 
H 	 34.8451 	 2.89644 	 72.7293 	 
H 	 36.2149 	 2.60528 	 73.8313 	 
S 	 38.6132 	 -5.37159 	 69.7845 	 
C 	 40.1356 	 -5.87319 	 69.1307 	 
C 	 40.9269 	 -4.76205 	 68.7418 	 
C 	 40.2405 	 -3.54023 	 68.9787 	 
C 	 39.0273 	 -3.66457 	 69.6541 	 
H 	 41.8884 	 -4.76109 	 68.2479 	 
C 	 40.9744 	 -2.25018 	 68.6888 	 
H 	 41.7056 	 -1.81612 	 69.33 	 
H 	 40.1869 	 -1.5082 	 68.8129 	 
C 	 41.4024 	 -2.17361 	 67.16 	 
H 	 40.5038 	 -2.21096 	 66.569 	 
H 	 42.0178 	 -2.99966 	 66.8616 	 
C 	 42.1825 	 -0.950644 	 66.7538 	 
H 	 41.5787 	 -0.0909262 	 66.82 	 
H 	 42.5105 	 -1.04483 	 65.7464 	 
H 	 43.0882 	 -0.82251 	 67.2885 	 
H 	 35.1613 	 -1.50801 	 72.1575 	 
H 	 40.5167 	 -6.88699 	 69.1014 	 
