34

S 	 0.487777 	 -13.2445 	 58.3962 	 
C 	 0.598908 	 -12.2345 	 59.8044 	 
C 	 1.66137 	 -12.6073 	 60.6294 	 
C 	 2.45369 	 -13.6463 	 60.0516 	 
C 	 1.94332 	 -14.2183 	 58.8607 	 
H 	 3.40812 	 -14.0657 	 60.3737 	 
C 	 2.00951 	 -11.9558 	 61.9568 	 
H 	 1.92091 	 -12.7865 	 62.7002 	 
H 	 1.25234 	 -11.2108 	 62.2162 	 
C 	 3.42638 	 -11.4196 	 62.1698 	 
H 	 4.26039 	 -12.1092 	 61.8574 	 
H 	 3.59904 	 -10.543 	 61.4566 	 
C 	 3.67861 	 -11.036 	 63.6064 	 
H 	 3.64298 	 -11.8719 	 64.2366 	 
H 	 4.61582 	 -10.608 	 63.796 	 
H 	 2.87396 	 -10.3869 	 64.0591 	 
S 	 2.40817 	 -15.288 	 56.4303 	 
C 	 3.35899 	 -16.758 	 56.3432 	 
C 	 3.53398 	 -17.3765 	 57.5745 	 
C 	 3.13495 	 -16.5015 	 58.614 	 
C 	 2.4578 	 -15.3569 	 58.1768 	 
H 	 4.04151 	 -18.3045 	 57.61 	 
C 	 3.36829 	 -16.8704 	 60.0168 	 
H 	 3.16346 	 -17.9109 	 60.1131 	 
H 	 2.68759 	 -16.3986 	 60.719 	 
C 	 4.85455 	 -16.6521 	 60.545 	 
H 	 5.03929 	 -15.6357 	 60.6979 	 
H 	 5.63102 	 -16.974 	 59.8296 	 
C 	 5.11391 	 -17.2687 	 61.8751 	 
H 	 5.07325 	 -18.3422 	 61.8948 	 
H 	 4.38413 	 -16.8499 	 62.6353 	 
H 	 6.10843 	 -16.9263 	 62.1655 	 
H 	 -0.0643141 	 -11.4077 	 59.958 	 
H 	 3.71851 	 -17.1013 	 55.431 	 
