34

S 	 32.4535 	 2.17644 	 65.7271 	 
C 	 32.6834 	 3.80618 	 65.4303 	 
C 	 31.4575 	 4.41898 	 65.0978 	 
C 	 30.3493 	 3.5567 	 65.3668 	 
C 	 30.7166 	 2.25761 	 65.6908 	 
H 	 29.2915 	 3.91488 	 65.3403 	 
C 	 31.2501 	 5.84347 	 64.6461 	 
H 	 32.2144 	 6.30291 	 64.7208 	 
H 	 30.5916 	 6.3449 	 65.3181 	 
C 	 30.7518 	 6.05432 	 63.1906 	 
H 	 29.8385 	 5.55249 	 62.8844 	 
H 	 30.6571 	 7.11333 	 63.0155 	 
C 	 31.746 	 5.464 	 62.1673 	 
H 	 32.2313 	 4.59056 	 62.4326 	 
H 	 31.1677 	 5.29058 	 61.2579 	 
H 	 32.6187 	 6.20688 	 62.088 	 
S 	 30.2548 	 -0.269435 	 64.9801 	 
C 	 28.9622 	 -1.15644 	 65.7307 	 
C 	 28.2643 	 -0.452199 	 66.7065 	 
C 	 28.7517 	 0.930254 	 66.7884 	 
C 	 29.8066 	 1.1638 	 65.9029 	 
H 	 27.5214 	 -0.921086 	 67.358 	 
C 	 28.1675 	 1.96422 	 67.6734 	 
H 	 28.9405 	 2.66498 	 67.9483 	 
H 	 27.7651 	 1.42834 	 68.5407 	 
C 	 26.9373 	 2.71406 	 67.1545 	 
H 	 26.0495 	 2.09701 	 67.047 	 
H 	 27.1695 	 3.01915 	 66.1521 	 
C 	 26.557 	 4.00848 	 67.8317 	 
H 	 26.3907 	 3.84662 	 68.9331 	 
H 	 25.6715 	 4.53774 	 67.3589 	 
H 	 27.4805 	 4.57523 	 67.7339 	 
H 	 33.6531 	 4.26881 	 65.3314 	 
H 	 28.7507 	 -2.21472 	 65.6191 	 
