34

S 	 1.68801 	 -30.1975 	 62.5219 	 
C 	 0.202133 	 -31.2096 	 62.5695 	 
C 	 -0.486213 	 -31.2847 	 61.3732 	 
C 	 0.143344 	 -30.3586 	 60.494 	 
C 	 1.28967 	 -29.6964 	 60.924 	 
H 	 -0.294883 	 -30.1614 	 59.4704 	 
C 	 -1.84378 	 -31.9435 	 61.0583 	 
H 	 -2.12449 	 -32.8111 	 61.637 	 
H 	 -1.62321 	 -32.2131 	 60.1436 	 
C 	 -3.00774 	 -31.004 	 61.1918 	 
H 	 -2.91347 	 -30.1093 	 60.5841 	 
H 	 -3.87979 	 -31.4678 	 60.8137 	 
C 	 -3.30728 	 -30.7321 	 62.6173 	 
H 	 -3.07603 	 -31.6158 	 63.3334 	 
H 	 -2.63445 	 -29.9126 	 62.9408 	 
H 	 -4.30276 	 -30.4649 	 62.7966 	 
S 	 3.83202 	 -28.9359 	 60.2911 	 
C 	 4.06525 	 -27.7271 	 59.0871 	 
C 	 2.81306 	 -27.0392 	 58.7132 	 
C 	 1.66447 	 -27.7205 	 59.309 	 
C 	 2.08364 	 -28.7189 	 60.2063 	 
H 	 2.83118 	 -26.2977 	 57.9304 	 
C 	 0.310334 	 -27.4755 	 58.752 	 
H 	 -0.465795 	 -27.9804 	 59.3246 	 
H 	 0.319967 	 -27.9709 	 57.726 	 
C 	 -0.183486 	 -25.9995 	 58.6475 	 
H 	 -1.15221 	 -25.9486 	 58.205 	 
H 	 0.562883 	 -25.4401 	 58.0235 	 
C 	 -0.304223 	 -25.2162 	 60.0133 	 
H 	 -1.04012 	 -25.7762 	 60.6567 	 
H 	 -0.704329 	 -24.2135 	 59.8347 	 
H 	 0.639082 	 -25.1202 	 60.479 	 
H 	 -0.0121899 	 -31.8911 	 63.3918 	 
H 	 5.01477 	 -27.3012 	 58.7483 	 
