34

S 	 -0.0374559 	 34.4311 	 38.6298 	 
C 	 0.776465 	 34.3192 	 37.047 	 
C 	 -0.101307 	 33.7338 	 36.1277 	 
C 	 -1.3722 	 33.4481 	 36.7173 	 
C 	 -1.52553 	 33.7383 	 38.0539 	 
H 	 -2.2722 	 33.1047 	 36.2525 	 
C 	 0.234642 	 33.3817 	 34.7097 	 
H 	 0.136608 	 34.2693 	 34.094 	 
H 	 -0.567919 	 32.6999 	 34.2988 	 
C 	 1.53675 	 32.5777 	 34.5512 	 
H 	 2.42547 	 33.191 	 34.9858 	 
H 	 1.52873 	 31.5881 	 34.9925 	 
C 	 1.99105 	 32.239 	 33.1962 	 
H 	 1.2713 	 31.4863 	 32.8284 	 
H 	 1.99347 	 33.109 	 32.5393 	 
H 	 3.00769 	 31.8839 	 33.1928 	 
S 	 -2.96026 	 34.9833 	 40.0346 	 
C 	 -4.55689 	 34.4456 	 40.4169 	 
C 	 -4.86941 	 33.2338 	 39.8291 	 
C 	 -3.82229 	 32.7586 	 38.9846 	 
C 	 -2.70635 	 33.6462 	 38.8879 	 
H 	 -5.80628 	 32.7615 	 40.0506 	 
C 	 -3.90865 	 31.3151 	 38.4423 	 
H 	 -4.4879 	 30.8344 	 39.2125 	 
H 	 -2.92573 	 30.8388 	 38.5431 	 
C 	 -4.65142 	 31.218 	 37.0739 	 
H 	 -4.21656 	 31.8984 	 36.37 	 
H 	 -5.62545 	 31.7604 	 37.2106 	 
C 	 -4.65524 	 29.7905 	 36.5277 	 
H 	 -3.62295 	 29.4348 	 36.4485 	 
H 	 -5.0456 	 29.707 	 35.4786 	 
H 	 -5.03893 	 29.1503 	 37.2727 	 
H 	 1.75884 	 34.6503 	 36.9183 	 
H 	 -5.16147 	 34.9784 	 41.1517 	 
