34

S 	 -115.596 	 49.7824 	 129.966 	 
C 	 -114.718 	 51.2563 	 130.128 	 
C 	 -114.078 	 51.4361 	 131.351 	 
C 	 -114.401 	 50.3974 	 132.279 	 
C 	 -115.401 	 49.5914 	 131.673 	 
H 	 -113.998 	 50.3496 	 133.316 	 
C 	 -113.02 	 52.5442 	 131.612 	 
H 	 -112.61 	 52.8034 	 130.635 	 
H 	 -112.19 	 52.1963 	 132.292 	 
C 	 -113.667 	 53.797 	 132.122 	 
H 	 -114.556 	 54.1184 	 131.593 	 
H 	 -114.024 	 53.6848 	 133.15 	 
C 	 -112.717 	 55.0083 	 132.144 	 
H 	 -113.226 	 55.7622 	 132.771 	 
H 	 -111.782 	 54.8702 	 132.676 	 
H 	 -112.603 	 55.4251 	 131.174 	 
S 	 -115.681 	 46.7488 	 131.842 	 
C 	 -116.223 	 46.0443 	 133.365 	 
C 	 -116.69 	 47.0144 	 134.235 	 
C 	 -116.614 	 48.3204 	 133.643 	 
C 	 -115.995 	 48.4083 	 132.371 	 
H 	 -117.24 	 46.8742 	 135.118 	 
C 	 -117.062 	 49.6421 	 134.358 	 
H 	 -118.165 	 49.6949 	 134.554 	 
H 	 -116.86 	 50.4757 	 133.69 	 
C 	 -116.198 	 49.8551 	 135.632 	 
H 	 -115.141 	 49.9677 	 135.372 	 
H 	 -116.258 	 48.9891 	 136.325 	 
C 	 -116.622 	 51.1507 	 136.313 	 
H 	 -117.669 	 51.1775 	 136.549 	 
H 	 -116.485 	 52.0481 	 135.8 	 
H 	 -115.912 	 51.1986 	 137.173 	 
H 	 -114.375 	 51.9215 	 129.353 	 
H 	 -116.353 	 44.9529 	 133.548 	 
