34

S 	 -67.107 	 53.8372 	 131.367 	 
C 	 -67.0157 	 55.3291 	 132.296 	 
C 	 -67.4852 	 55.1644 	 133.589 	 
C 	 -67.938 	 53.8373 	 133.812 	 
C 	 -67.7394 	 52.9619 	 132.708 	 
H 	 -68.1116 	 53.4649 	 134.786 	 
C 	 -67.3058 	 56.2108 	 134.674 	 
H 	 -66.9566 	 57.1362 	 134.252 	 
H 	 -66.4675 	 55.8899 	 135.278 	 
C 	 -68.558 	 56.3623 	 135.536 	 
H 	 -69.4216 	 56.6375 	 134.917 	 
H 	 -68.898 	 55.419 	 135.985 	 
C 	 -68.3714 	 57.4095 	 136.628 	 
H 	 -69.1062 	 57.4501 	 137.409 	 
H 	 -67.4483 	 57.0643 	 137.167 	 
H 	 -68.2351 	 58.4717 	 136.296 	 
S 	 -66.6366 	 50.4758 	 132.398 	 
C 	 -67.7422 	 49.0808 	 132.279 	 
C 	 -69.0705 	 49.4129 	 132.604 	 
C 	 -69.1556 	 50.7982 	 132.903 	 
C 	 -67.968 	 51.5106 	 132.676 	 
H 	 -69.874 	 48.6284 	 132.672 	 
C 	 -70.4623 	 51.4033 	 133.311 	 
H 	 -70.2834 	 52.4714 	 133.518 	 
H 	 -70.8679 	 50.926 	 134.173 	 
C 	 -71.5845 	 51.2862 	 132.228 	 
H 	 -71.9007 	 50.2596 	 132.186 	 
H 	 -71.0316 	 51.6086 	 131.38 	 
C 	 -72.7323 	 52.2231 	 132.37 	 
H 	 -73.2792 	 52.3372 	 131.436 	 
H 	 -72.3606 	 53.1505 	 132.489 	 
H 	 -73.4714 	 52.2436 	 133.16 	 
H 	 -66.688 	 56.3192 	 131.964 	 
H 	 -67.4062 	 48.0962 	 131.986 	 
