34

S 	 -11.6331 	 74.01 	 49.7967 	 
C 	 -13.1221 	 74.9992 	 49.5875 	 
C 	 -14.2072 	 74.3907 	 50.1424 	 
C 	 -13.9313 	 73.0487 	 50.4494 	 
C 	 -12.6345 	 72.6516 	 50.2235 	 
H 	 -14.5581 	 72.2655 	 50.7448 	 
C 	 -15.6381 	 74.9293 	 50.2876 	 
H 	 -15.8579 	 75.2317 	 49.2647 	 
H 	 -15.606 	 75.8817 	 50.8089 	 
C 	 -16.7607 	 74.0096 	 50.8576 	 
H 	 -16.7685 	 73.0075 	 50.4443 	 
H 	 -16.4902 	 73.9345 	 51.9267 	 
C 	 -18.2659 	 74.5292 	 50.6824 	 
H 	 -18.3861 	 75.6237 	 50.5335 	 
H 	 -18.749 	 73.958 	 49.8813 	 
H 	 -18.8824 	 74.2881 	 51.5217 	 
S 	 -10.5441 	 71.2222 	 51.3777 	 
C 	 -10.4143 	 69.5725 	 51.0197 	 
C 	 -11.6037 	 69.1046 	 50.6001 	 
C 	 -12.5433 	 70.0467 	 50.177 	 
C 	 -12.0624 	 71.3501 	 50.5005 	 
H 	 -11.6602 	 68.0158 	 50.5869 	 
C 	 -13.8902 	 69.694 	 49.5886 	 
H 	 -13.6637 	 68.9932 	 48.8251 	 
H 	 -14.347 	 70.5344 	 49.1099 	 
C 	 -14.8237 	 69.0691 	 50.6047 	 
H 	 -15.1473 	 69.7711 	 51.3124 	 
H 	 -14.3519 	 68.3329 	 51.2358 	 
C 	 -15.9638 	 68.281 	 50.0654 	 
H 	 -15.5819 	 67.632 	 49.2496 	 
H 	 -16.7258 	 68.9099 	 49.5549 	 
H 	 -16.5439 	 67.5828 	 50.7962 	 
H 	 -13.1035 	 76.0256 	 49.4086 	 
H 	 -9.56291 	 68.9867 	 51.3233 	 
