34

S 	 27.0073 	 -8.42671 	 76.7547 	 
C 	 28.5177 	 -7.59514 	 76.4362 	 
C 	 29.5434 	 -7.96805 	 77.2999 	 
C 	 29.119 	 -9.05511 	 78.1221 	 
C 	 27.7821 	 -9.42819 	 77.9017 	 
H 	 29.704 	 -9.62088 	 78.8476 	 
C 	 30.9556 	 -7.41335 	 77.2317 	 
H 	 31.4354 	 -7.63183 	 78.1293 	 
H 	 30.9454 	 -6.36781 	 77.1589 	 
C 	 31.8271 	 -8.05657 	 76.1549 	 
H 	 31.8499 	 -9.19605 	 76.2977 	 
H 	 31.3014 	 -8.0044 	 75.1836 	 
C 	 33.2557 	 -7.56007 	 76.2102 	 
H 	 33.7854 	 -8.07512 	 75.3987 	 
H 	 33.1513 	 -6.5382 	 75.9902 	 
H 	 33.7026 	 -7.66085 	 77.1412 	 
S 	 26.464 	 -11.7159 	 77.463 	 
C 	 25.8527 	 -12.6905 	 78.7486 	 
C 	 26.2729 	 -12.2067 	 79.9306 	 
C 	 27.1453 	 -11.0846 	 79.7902 	 
C 	 27.1046 	 -10.5005 	 78.52 	 
H 	 26.0842 	 -12.6364 	 80.9 	 
C 	 27.8073 	 -10.5007 	 81.0554 	 
H 	 27.1188 	 -10.5412 	 81.9454 	 
H 	 28.0181 	 -9.47431 	 80.9443 	 
C 	 29.0845 	 -11.2423 	 81.4257 	 
H 	 29.6622 	 -10.4767 	 82.0292 	 
H 	 29.5754 	 -11.4518 	 80.4313 	 
C 	 29.0449 	 -12.5308 	 82.2221 	 
H 	 28.7901 	 -12.4493 	 83.3564 	 
H 	 29.9865 	 -13.0432 	 82.1924 	 
H 	 28.324 	 -13.2301 	 81.7169 	 
H 	 28.6327 	 -6.74428 	 75.7427 	 
H 	 25.1555 	 -13.5356 	 78.6162 	 
