34

S 	 -70.6393 	 40.582 	 122.3 	 
C 	 -71.9158 	 40.4402 	 123.518 	 
C 	 -71.9168 	 39.2196 	 124.154 	 
C 	 -71.1091 	 38.3175 	 123.452 	 
C 	 -70.3835 	 38.8939 	 122.447 	 
H 	 -70.9736 	 37.2639 	 123.658 	 
C 	 -72.7616 	 38.6965 	 125.336 	 
H 	 -71.9973 	 38.1784 	 125.93 	 
H 	 -73.4885 	 37.967 	 124.988 	 
C 	 -73.4517 	 39.7494 	 126.303 	 
H 	 -72.7461 	 40.5529 	 126.484 	 
H 	 -74.2631 	 40.3076 	 125.735 	 
C 	 -73.961 	 39.0965 	 127.68 	 
H 	 -73.1507 	 38.6741 	 128.208 	 
H 	 -74.3625 	 39.8646 	 128.281 	 
H 	 -74.7254 	 38.2933 	 127.559 	 
S 	 -67.8575 	 38.7849 	 121.272 	 
C 	 -67.4058 	 37.2474 	 120.582 	 
C 	 -68.4822 	 36.4195 	 120.311 	 
C 	 -69.6869 	 37.0401 	 120.769 	 
C 	 -69.4704 	 38.202 	 121.535 	 
H 	 -68.3134 	 35.456 	 119.834 	 
C 	 -70.9585 	 36.2686 	 120.61 	 
H 	 -71.3263 	 35.943 	 121.587 	 
H 	 -70.6403 	 35.295 	 120.199 	 
C 	 -72.0588 	 36.9338 	 119.693 	 
H 	 -71.6668 	 36.8128 	 118.683 	 
H 	 -72.1933 	 37.9621 	 119.97 	 
C 	 -73.3873 	 36.1405 	 119.833 	 
H 	 -73.2648 	 35.2349 	 119.314 	 
H 	 -74.3112 	 36.5734 	 119.433 	 
H 	 -73.5877 	 35.8742 	 120.875 	 
H 	 -72.4687 	 41.3146 	 123.808 	 
H 	 -66.4003 	 36.8617 	 120.383 	 
