34

S 	 39.2505 	 11.1908 	 82.697 	 
C 	 40.4393 	 10.7524 	 81.4768 	 
C 	 40.6537 	 11.8376 	 80.5923 	 
C 	 40.008 	 13.0454 	 81.0882 	 
C 	 39.1893 	 12.8975 	 82.1533 	 
H 	 40.0925 	 14.0894 	 80.726 	 
C 	 41.6135 	 11.8171 	 79.4913 	 
H 	 41.437 	 12.5351 	 78.6678 	 
H 	 41.5559 	 10.9054 	 78.9381 	 
C 	 43.0524 	 12.113 	 79.9743 	 
H 	 43.0029 	 13.0853 	 80.4469 	 
H 	 43.4965 	 11.365 	 80.7527 	 
C 	 44.0293 	 12.3045 	 78.7753 	 
H 	 43.5907 	 12.9738 	 78.029 	 
H 	 44.9337 	 12.785 	 79.0851 	 
H 	 44.4241 	 11.3989 	 78.3539 	 
S 	 36.7127 	 13.8123 	 83.0461 	 
C 	 36.4577 	 15.496 	 83.2017 	 
C 	 37.6728 	 16.0794 	 83.3808 	 
C 	 38.7916 	 15.2798 	 83.1876 	 
C 	 38.4558 	 13.9748 	 82.8177 	 
H 	 37.6698 	 17.142 	 83.624 	 
C 	 40.2164 	 15.8497 	 83.3918 	 
H 	 41.0229 	 15.065 	 83.5704 	 
H 	 40.2217 	 16.4706 	 84.2779 	 
C 	 40.6217 	 16.7749 	 82.2667 	 
H 	 39.8316 	 17.5233 	 82.1474 	 
H 	 40.655 	 16.2259 	 81.3363 	 
C 	 41.9366 	 17.4823 	 82.5398 	 
H 	 42.2373 	 18.0458 	 81.69 	 
H 	 42.7589 	 16.8541 	 82.8174 	 
H 	 41.8891 	 18.0598 	 83.4108 	 
H 	 40.7103 	 9.78791 	 81.109 	 
H 	 35.4816 	 15.9624 	 83.2306 	 
