34

S 	 -18.5631 	 51.9648 	 66.7849 	 
C 	 -18.5393 	 50.5107 	 67.8272 	 
C 	 -19.7863 	 49.9798 	 68.1363 	 
C 	 -20.8187 	 50.8497 	 67.6375 	 
C 	 -20.3914 	 52.0131 	 67.0064 	 
H 	 -21.886 	 50.6948 	 67.7054 	 
C 	 -20.0771 	 48.816 	 69.0701 	 
H 	 -20.8422 	 49.0702 	 69.7861 	 
H 	 -19.1363 	 48.6163 	 69.6427 	 
C 	 -20.4478 	 47.5362 	 68.2937 	 
H 	 -20.8925 	 46.8253 	 69.0444 	 
H 	 -21.1675 	 47.9068 	 67.5076 	 
C 	 -19.2023 	 46.8146 	 67.8159 	 
H 	 -19.3989 	 45.8589 	 67.2695 	 
H 	 -18.7905 	 47.4296 	 66.9677 	 
H 	 -18.4163 	 46.5808 	 68.527 	 
S 	 -20.8775 	 53.6673 	 64.7929 	 
C 	 -22.3911 	 54.4601 	 64.6264 	 
C 	 -22.9862 	 54.5962 	 65.9435 	 
C 	 -22.3747 	 53.7065 	 66.8989 	 
C 	 -21.2186 	 53.1183 	 66.4457 	 
H 	 -23.9246 	 55.0165 	 66.0462 	 
C 	 -23.0995 	 53.4654 	 68.2153 	 
H 	 -22.6174 	 52.6881 	 68.8283 	 
H 	 -24.1051 	 53.1117 	 68.0153 	 
C 	 -23.151 	 54.6545 	 69.151 	 
H 	 -23.3322 	 55.509 	 68.5025 	 
H 	 -22.1905 	 54.8541 	 69.5122 	 
C 	 -24.0375 	 54.5586 	 70.4413 	 
H 	 -24.0501 	 55.5353 	 70.9254 	 
H 	 -23.4842 	 53.9729 	 71.1835 	 
H 	 -25.0157 	 54.1266 	 70.3535 	 
H 	 -17.5947 	 50.1319 	 68.1855 	 
H 	 -22.8327 	 54.8969 	 63.766 	 
