34

S 	 17.9755 	 3.97574 	 85.2175 	 
C 	 18.8302 	 5.28745 	 85.9258 	 
C 	 18.1233 	 6.08046 	 86.8182 	 
C 	 16.9223 	 5.44661 	 87.1152 	 
C 	 16.5588 	 4.43043 	 86.2382 	 
H 	 16.2904 	 5.67311 	 87.968 	 
C 	 18.6081 	 7.27992 	 87.5497 	 
H 	 18.4912 	 6.96944 	 88.6031 	 
H 	 17.7679 	 8.01243 	 87.396 	 
C 	 19.9109 	 7.87996 	 87.0574 	 
H 	 20.7552 	 7.30846 	 87.444 	 
H 	 19.8041 	 7.92828 	 86.0077 	 
C 	 20.1861 	 9.34612 	 87.4767 	 
H 	 20.7369 	 9.45552 	 88.3902 	 
H 	 20.6125 	 9.75893 	 86.6077 	 
H 	 19.2968 	 9.90897 	 87.6035 	 
S 	 15.1287 	 2.04568 	 85.7584 	 
C 	 13.383 	 2.0747 	 85.9593 	 
C 	 12.9158 	 3.31525 	 86.2413 	 
C 	 13.9716 	 4.30839 	 86.3548 	 
C 	 15.2455 	 3.80287 	 86.1939 	 
H 	 11.8298 	 3.32929 	 86.1968 	 
C 	 13.6081 	 5.7846 	 86.5186 	 
H 	 14.4182 	 6.28439 	 87.0407 	 
H 	 12.72 	 6.01748 	 87.0566 	 
C 	 13.4949 	 6.55361 	 85.2276 	 
H 	 12.7695 	 6.00917 	 84.6179 	 
H 	 14.3642 	 6.49505 	 84.5394 	 
C 	 13.1583 	 8.06328 	 85.4321 	 
H 	 13.1665 	 8.72372 	 84.5489 	 
H 	 13.8625 	 8.43769 	 86.1784 	 
H 	 12.1754 	 8.15255 	 85.8534 	 
H 	 19.7666 	 5.65773 	 85.5625 	 
H 	 12.7246 	 1.2972 	 85.6751 	 
