34

S 	 59.696 	 4.95245 	 77.765 	 
C 	 59.1362 	 5.96859 	 79.2104 	 
C 	 58.4682 	 7.14741 	 78.7763 	 
C 	 58.5526 	 7.25699 	 77.341 	 
C 	 59.0028 	 6.10355 	 76.6564 	 
H 	 58.2646 	 8.10057 	 76.7464 	 
C 	 57.8167 	 8.0917 	 79.677 	 
H 	 56.8975 	 7.75244 	 79.9984 	 
H 	 57.6544 	 9.05904 	 79.2254 	 
C 	 58.6515 	 8.36718 	 80.876 	 
H 	 58.7461 	 7.4528 	 81.4246 	 
H 	 59.6817 	 8.62088 	 80.5624 	 
C 	 57.9341 	 9.37142 	 81.862 	 
H 	 56.8355 	 9.32506 	 81.6926 	 
H 	 58.1978 	 9.20605 	 82.8899 	 
H 	 58.3318 	 10.3716 	 81.718 	 
S 	 57.5649 	 6.0022 	 74.1836 	 
C 	 58.4337 	 5.31742 	 72.8118 	 
C 	 59.6723 	 4.89486 	 73.1519 	 
C 	 60.0183 	 5.1254 	 74.4868 	 
C 	 59.0422 	 5.77707 	 75.1937 	 
H 	 60.3594 	 4.43299 	 72.4328 	 
C 	 61.3232 	 4.57959 	 75.0373 	 
H 	 61.2265 	 3.51264 	 75.2285 	 
H 	 61.5871 	 5.08278 	 76.0505 	 
C 	 62.5206 	 4.8724 	 74.1717 	 
H 	 62.8347 	 5.89347 	 74.0843 	 
H 	 62.3281 	 4.4458 	 73.2143 	 
C 	 63.7584 	 4.03784 	 74.5365 	 
H 	 63.5086 	 2.97191 	 74.4876 	 
H 	 64.0691 	 4.14126 	 75.5089 	 
H 	 64.6582 	 4.15631 	 73.9641 	 
H 	 59.1768 	 5.65656 	 80.2198 	 
H 	 58.0381 	 5.43003 	 71.7896 	 
