34

S 	 -83.6684 	 48.6179 	 130.267 	 
C 	 -85.3329 	 48.6075 	 130.935 	 
C 	 -85.8137 	 49.8964 	 131.103 	 
C 	 -84.8121 	 50.8805 	 130.804 	 
C 	 -83.6332 	 50.3592 	 130.404 	 
H 	 -84.9616 	 51.9443 	 130.868 	 
C 	 -87.2222 	 50.1092 	 131.556 	 
H 	 -87.8312 	 49.201 	 131.414 	 
H 	 -87.6567 	 50.9139 	 131.045 	 
C 	 -87.4851 	 50.4079 	 133.062 	 
H 	 -88.5451 	 50.2197 	 133.329 	 
H 	 -86.8179 	 49.896 	 133.724 	 
C 	 -87.2934 	 51.8505 	 133.404 	 
H 	 -86.2495 	 52.2162 	 133.388 	 
H 	 -87.9093 	 52.4545 	 132.734 	 
H 	 -87.79 	 52.0914 	 134.398 	 
S 	 -81.6108 	 50.5314 	 128.506 	 
C 	 -80.4203 	 51.7818 	 128.622 	 
C 	 -80.6536 	 52.6023 	 129.732 	 
C 	 -81.7744 	 52.2284 	 130.51 	 
C 	 -82.4365 	 51.1136 	 130.015 	 
H 	 -79.9874 	 53.4473 	 129.878 	 
C 	 -82.1293 	 53.0398 	 131.695 	 
H 	 -83.2778 	 52.9901 	 131.712 	 
H 	 -81.8796 	 54.1286 	 131.544 	 
C 	 -81.5898 	 52.5845 	 133.066 	 
H 	 -81.9543 	 53.2038 	 133.871 	 
H 	 -80.5538 	 52.619 	 133.112 	 
C 	 -82.0009 	 51.2293 	 133.547 	 
H 	 -81.4748 	 51.0114 	 134.478 	 
H 	 -81.8341 	 50.3055 	 132.992 	 
H 	 -83.0892 	 51.1339 	 133.747 	 
H 	 -85.9392 	 47.7206 	 130.936 	 
H 	 -79.5614 	 51.9027 	 127.953 	 
