34

S 	 45.9008 	 17.7153 	 77.9528 	 
C 	 45.0566 	 17.3159 	 79.441 	 
C 	 45.5867 	 16.1706 	 79.9873 	 
C 	 46.8397 	 15.7412 	 79.4139 	 
C 	 47.1777 	 16.6391 	 78.3821 	 
H 	 47.4211 	 14.8784 	 79.6368 	 
C 	 45.0293 	 15.4775 	 81.2284 	 
H 	 45.0931 	 14.4083 	 81.2832 	 
H 	 43.9834 	 15.5913 	 81.1706 	 
C 	 45.4238 	 16.1926 	 82.5572 	 
H 	 45.1513 	 17.2512 	 82.4724 	 
H 	 44.7672 	 15.727 	 83.3495 	 
C 	 46.8942 	 16.0767 	 83.0025 	 
H 	 47.5835 	 16.4831 	 82.2043 	 
H 	 46.9682 	 16.8114 	 83.8213 	 
H 	 47.1109 	 15.0869 	 83.4206 	 
S 	 48.1326 	 15.2638 	 76.2177 	 
C 	 49.6799 	 15.6759 	 75.5759 	 
C 	 50.3326 	 16.6161 	 76.3603 	 
C 	 49.5051 	 17.145 	 77.4101 	 
C 	 48.2805 	 16.5098 	 77.4861 	 
H 	 51.3659 	 16.9338 	 76.0737 	 
C 	 49.9898 	 18.2212 	 78.4092 	 
H 	 49.1694 	 18.4174 	 79.0333 	 
H 	 50.3714 	 19.0727 	 77.8164 	 
C 	 51.2553 	 17.8067 	 79.2628 	 
H 	 51.7783 	 18.7409 	 79.6179 	 
H 	 51.9415 	 17.3789 	 78.5347 	 
C 	 51.097 	 16.7272 	 80.2388 	 
H 	 52.0807 	 16.3478 	 80.5669 	 
H 	 50.5894 	 15.8386 	 79.8883 	 
H 	 50.5033 	 17.0468 	 81.0912 	 
H 	 44.1204 	 17.7353 	 79.7769 	 
H 	 50.1613 	 15.1855 	 74.7589 	 
