34

S 	 31.0969 	 27.4187 	 54.1782 	 
C 	 30.2157 	 27.4291 	 52.6962 	 
C 	 30.0027 	 26.1511 	 52.2388 	 
C 	 30.6728 	 25.1493 	 53.0879 	 
C 	 31.3656 	 25.7009 	 54.207 	 
H 	 30.518 	 24.0757 	 52.9891 	 
C 	 29.1452 	 25.7671 	 51.076 	 
H 	 29.6335 	 25.0463 	 50.3923 	 
H 	 29.0749 	 26.6326 	 50.3998 	 
C 	 27.8123 	 25.0195 	 51.4935 	 
H 	 28.1429 	 24.129 	 52.0459 	 
H 	 27.1815 	 25.5835 	 52.2041 	 
C 	 26.9833 	 24.4117 	 50.3881 	 
H 	 27.4488 	 23.5708 	 49.9043 	 
H 	 26.0203 	 24.0148 	 50.5625 	 
H 	 26.8002 	 25.2715 	 49.7058 	 
S 	 32.5409 	 26.0527 	 56.7254 	 
C 	 33.5893 	 24.8025 	 57.343 	 
C 	 33.5717 	 23.7554 	 56.4791 	 
C 	 32.7878 	 23.9369 	 55.3235 	 
C 	 32.2457 	 25.1776 	 55.2334 	 
H 	 34.1166 	 22.8555 	 56.6483 	 
C 	 32.8005 	 22.831 	 54.3579 	 
H 	 31.8244 	 22.4154 	 54.1309 	 
H 	 33.2402 	 21.8133 	 54.8304 	 
C 	 33.4661 	 23.1791 	 53.0733 	 
H 	 34.5185 	 23.3175 	 53.4043 	 
H 	 33.1395 	 24.0597 	 52.5262 	 
C 	 33.4359 	 22.0336 	 52.055 	 
H 	 32.4439 	 21.8771 	 51.6052 	 
H 	 33.8202 	 21.1165 	 52.496 	 
H 	 34.0107 	 22.3235 	 51.1816 	 
H 	 29.7993 	 28.3532 	 52.2974 	 
H 	 34.3019 	 24.8525 	 58.1588 	 
