34

S 	 -101.655 	 53.2114 	 118.535 	 
C 	 -100.546 	 51.8373 	 118.367 	 
C 	 -99.3705 	 52.3509 	 117.812 	 
C 	 -99.4237 	 53.7307 	 117.396 	 
C 	 -100.628 	 54.3835 	 117.74 	 
H 	 -98.6581 	 54.3049 	 116.925 	 
C 	 -98.2147 	 51.4288 	 117.455 	 
H 	 -98.2441 	 50.5856 	 118.101 	 
H 	 -97.3551 	 51.9274 	 117.773 	 
C 	 -98.0742 	 51.041 	 115.968 	 
H 	 -98.1348 	 51.9929 	 115.435 	 
H 	 -97.0909 	 50.7034 	 115.763 	 
C 	 -99.2436 	 50.1528 	 115.454 	 
H 	 -100.069 	 50.3447 	 116.012 	 
H 	 -99.501 	 50.3834 	 114.411 	 
H 	 -99.0246 	 49.0709 	 115.531 	 
S 	 -102.327 	 56.0645 	 116.489 	 
C 	 -102.21 	 57.8489 	 116.767 	 
C 	 -101.141 	 58.1801 	 117.501 	 
C 	 -100.453 	 57.002 	 117.966 	 
C 	 -100.976 	 55.7679 	 117.522 	 
H 	 -100.941 	 59.1547 	 117.75 	 
C 	 -99.2947 	 57.1235 	 118.928 	 
H 	 -98.5739 	 56.4603 	 118.459 	 
H 	 -99.6091 	 56.7143 	 119.881 	 
C 	 -98.7051 	 58.538 	 119.174 	 
H 	 -99.5019 	 59.1577 	 119.495 	 
H 	 -98.3806 	 58.9104 	 118.207 	 
C 	 -97.5107 	 58.6508 	 120.055 	 
H 	 -97.1317 	 59.7098 	 120.035 	 
H 	 -96.6669 	 58.0371 	 119.716 	 
H 	 -97.8234 	 58.2854 	 121.048 	 
H 	 -100.773 	 50.7254 	 118.491 	 
H 	 -102.796 	 58.5849 	 116.261 	 
