34

S 	 -69.344 	 40.6046 	 125.878 	 
C 	 -69.8664 	 42.2377 	 125.859 	 
C 	 -68.9046 	 43.0834 	 125.427 	 
C 	 -67.7233 	 42.3996 	 124.954 	 
C 	 -67.8476 	 40.9832 	 125.107 	 
H 	 -66.8537 	 42.8866 	 124.483 	 
C 	 -69.0565 	 44.5347 	 125.28 	 
H 	 -68.1692 	 45.0787 	 125.481 	 
H 	 -69.7505 	 44.8264 	 126.118 	 
C 	 -69.6469 	 44.9358 	 123.943 	 
H 	 -70.6904 	 44.5158 	 123.872 	 
H 	 -69.5017 	 45.9952 	 124.022 	 
C 	 -68.8335 	 44.6109 	 122.719 	 
H 	 -69.0759 	 45.368 	 121.962 	 
H 	 -67.7602 	 44.7245 	 123.017 	 
H 	 -69.0012 	 43.5902 	 122.372 	 
S 	 -67.7709 	 38.4224 	 124.398 	 
C 	 -66.32 	 37.7748 	 123.657 	 
C 	 -65.2518 	 38.6508 	 123.622 	 
C 	 -65.5969 	 39.8919 	 124.235 	 
C 	 -66.993 	 39.9269 	 124.627 	 
H 	 -64.3156 	 38.3186 	 123.119 	 
C 	 -64.6336 	 41.0137 	 124.584 	 
H 	 -63.7705 	 40.6586 	 125.261 	 
H 	 -64.9491 	 41.8254 	 125.216 	 
C 	 -64.0219 	 41.6451 	 123.302 	 
H 	 -63.6054 	 40.829 	 122.693 	 
H 	 -63.1822 	 42.1988 	 123.69 	 
C 	 -64.9154 	 42.6706 	 122.597 	 
H 	 -64.5706 	 42.9849 	 121.621 	 
H 	 -65.071 	 43.6117 	 123.149 	 
H 	 -65.8979 	 42.2156 	 122.447 	 
H 	 -70.8755 	 42.5485 	 126.082 	 
H 	 -66.2617 	 36.736 	 123.325 	 
