34

S 	 -3.9192 	 77.6364 	 54.3812 	 
C 	 -2.55781 	 78.6001 	 54.8103 	 
C 	 -1.37006 	 78.0148 	 54.3762 	 
C 	 -1.63519 	 76.7923 	 53.567 	 
C 	 -2.97954 	 76.5772 	 53.3469 	 
H 	 -0.921702 	 76.1438 	 53.0292 	 
C 	 -0.0382848 	 78.5851 	 54.7497 	 
H 	 0.241602 	 78.1477 	 55.6517 	 
H 	 -0.0238498 	 79.6383 	 55.0554 	 
C 	 1.2122 	 78.1995 	 53.944 	 
H 	 2.03454 	 78.5593 	 54.54 	 
H 	 1.3087 	 77.1184 	 53.819 	 
C 	 1.12296 	 78.9358 	 52.5661 	 
H 	 0.231748 	 78.637 	 52.0372 	 
H 	 1.09116 	 80.0022 	 52.6709 	 
H 	 1.90899 	 78.5847 	 51.8678 	 
S 	 -3.21675 	 73.9204 	 53.1871 	 
C 	 -4.3592 	 73.2185 	 52.0358 	 
C 	 -4.7689 	 74.1599 	 51.0968 	 
C 	 -4.45317 	 75.4922 	 51.5244 	 
C 	 -3.56757 	 75.5315 	 52.5852 	 
H 	 -5.42135 	 73.9433 	 50.3 	 
C 	 -4.94775 	 76.8051 	 50.8393 	 
H 	 -4.93832 	 77.5943 	 51.624 	 
H 	 -5.97953 	 76.6494 	 50.7501 	 
C 	 -4.22958 	 77.2117 	 49.574 	 
H 	 -4.74093 	 77.9381 	 49.067 	 
H 	 -4.2933 	 76.3531 	 48.9262 	 
C 	 -2.73354 	 77.6141 	 49.8065 	 
H 	 -2.15523 	 76.6939 	 49.9866 	 
H 	 -2.5853 	 78.1871 	 50.7282 	 
H 	 -2.33885 	 78.1809 	 48.9364 	 
H 	 -2.64203 	 79.4101 	 55.476 	 
H 	 -4.78994 	 72.2159 	 52.0997 	 
