34

S 	 70.042 	 20.6418 	 74.1045 	 
C 	 68.4563 	 19.8305 	 73.9127 	 
C 	 67.3914 	 20.6382 	 74.2875 	 
C 	 67.7612 	 22.0184 	 74.4512 	 
C 	 69.1266 	 22.1512 	 74.3958 	 
H 	 67.1562 	 22.8613 	 74.7126 	 
C 	 65.9384 	 20.1887 	 74.6162 	 
H 	 65.3411 	 20.9473 	 75.1417 	 
H 	 65.9134 	 19.2642 	 75.2714 	 
C 	 65.1141 	 19.7425 	 73.3504 	 
H 	 65.2881 	 20.4645 	 72.6017 	 
H 	 65.574 	 18.8518 	 73.044 	 
C 	 63.5197 	 19.6984 	 73.5239 	 
H 	 63.1162 	 19.5162 	 72.5534 	 
H 	 63.1452 	 18.948 	 74.2117 	 
H 	 63.1289 	 20.6808 	 73.8517 	 
S 	 69.631 	 24.443 	 75.7665 	 
C 	 70.3312 	 25.7211 	 74.91 	 
C 	 70.7942 	 25.4299 	 73.6776 	 
C 	 70.5001 	 24.0947 	 73.3525 	 
C 	 69.748 	 23.493 	 74.3323 	 
H 	 71.2563 	 26.235 	 73.1059 	 
C 	 71.0217 	 23.4675 	 72.078 	 
H 	 71.4133 	 22.4953 	 72.3644 	 
H 	 71.8455 	 24.0911 	 71.7165 	 
C 	 69.835 	 23.2732 	 71.0675 	 
H 	 69.0369 	 22.6218 	 71.5916 	 
H 	 70.2388 	 22.6441 	 70.2854 	 
C 	 69.1328 	 24.5284 	 70.4099 	 
H 	 69.8127 	 25.1803 	 69.8077 	 
H 	 68.7368 	 25.2 	 71.2292 	 
H 	 68.2725 	 24.2775 	 69.786 	 
H 	 68.2804 	 18.7722 	 73.7986 	 
H 	 70.4831 	 26.6967 	 75.37 	 
