34

S 	 49.7576 	 2.87266 	 82.459 	 
C 	 51.4631 	 3.02467 	 82.2609 	 
C 	 52.0633 	 3.09192 	 83.5302 	 
C 	 51.1161 	 2.75414 	 84.6321 	 
C 	 49.8312 	 2.66464 	 84.1934 	 
H 	 51.2813 	 2.67941 	 85.711 	 
C 	 53.4962 	 3.38555 	 83.7753 	 
H 	 54.019 	 3.22352 	 82.831 	 
H 	 53.8835 	 2.63902 	 84.4027 	 
C 	 53.8683 	 4.77871 	 84.2398 	 
H 	 53.3907 	 5.52888 	 83.6089 	 
H 	 53.4159 	 4.91596 	 85.1992 	 
C 	 55.3639 	 5.08282 	 84.429 	 
H 	 55.9693 	 4.58171 	 83.5915 	 
H 	 55.5353 	 6.11373 	 84.6165 	 
H 	 55.8214 	 4.77419 	 85.4271 	 
S 	 47.663 	 1.15218 	 84.9507 	 
C 	 46.6274 	 1.73774 	 86.2574 	 
C 	 46.8759 	 3.0627 	 86.6114 	 
C 	 48.0941 	 3.52089 	 85.9582 	 
C 	 48.6244 	 2.60909 	 85.0319 	 
H 	 46.3037 	 3.5473 	 87.384 	 
C 	 48.6677 	 4.89473 	 86.3727 	 
H 	 47.9863 	 5.72162 	 86.0727 	 
H 	 49.5867 	 4.99152 	 85.801 	 
C 	 48.9936 	 4.79513 	 87.9531 	 
H 	 49.9305 	 4.20011 	 88.1321 	 
H 	 48.127 	 4.44961 	 88.4754 	 
C 	 49.3724 	 6.15885 	 88.4736 	 
H 	 49.4111 	 6.05352 	 89.567 	 
H 	 48.5429 	 6.92645 	 88.2871 	 
H 	 50.3046 	 6.58163 	 88.0206 	 
H 	 51.9267 	 3.43366 	 81.3771 	 
H 	 45.8621 	 1.24519 	 86.7115 	 
