34

S 	 -50.2132 	 8.04712 	 82.3565 	 
C 	 -50.3142 	 9.73532 	 82.8218 	 
C 	 -51.3718 	 9.94745 	 83.683 	 
C 	 -52.3058 	 8.84082 	 83.6046 	 
C 	 -51.8868 	 7.79024 	 82.8567 	 
H 	 -53.2718 	 8.94557 	 84.0928 	 
C 	 -51.7749 	 11.1991 	 84.4718 	 
H 	 -52.8308 	 11.2819 	 84.2031 	 
H 	 -51.3243 	 12.121 	 84.0431 	 
C 	 -51.5084 	 10.9451 	 85.9712 	 
H 	 -51.9053 	 11.8545 	 86.4876 	 
H 	 -52.0199 	 10.0468 	 86.2225 	 
C 	 -50.0475 	 10.7298 	 86.4274 	 
H 	 -49.4593 	 11.5874 	 86.1465 	 
H 	 -50.0968 	 10.7399 	 87.5281 	 
H 	 -49.6257 	 9.829 	 86.0283 	 
S 	 -51.556 	 5.0289 	 82.9949 	 
C 	 -52.976 	 3.95086 	 82.7911 	 
C 	 -54.1039 	 4.70606 	 82.5201 	 
C 	 -53.8476 	 6.16264 	 82.4591 	 
C 	 -52.5389 	 6.5225 	 82.7032 	 
H 	 -55.0399 	 4.26015 	 82.4283 	 
C 	 -54.7522 	 7.25567 	 82.0273 	 
H 	 -54.2812 	 7.72388 	 81.2048 	 
H 	 -54.8098 	 8.00639 	 82.7798 	 
C 	 -56.1416 	 6.70123 	 81.6098 	 
H 	 -56.632 	 6.43911 	 82.5342 	 
H 	 -56.0673 	 5.73684 	 81.0574 	 
C 	 -56.9258 	 7.68375 	 80.7956 	 
H 	 -56.5911 	 8.73463 	 80.7654 	 
H 	 -57.9146 	 7.73004 	 81.0224 	 
H 	 -56.8819 	 7.29128 	 79.8035 	 
H 	 -49.5747 	 10.5006 	 82.741 	 
H 	 -52.9804 	 2.82439 	 82.9116 	 
