34

S 	 -28.8088 	 54.2542 	 111.946 	 
C 	 -27.3973 	 55.3646 	 112.064 	 
C 	 -27.1713 	 55.9542 	 110.863 	 
C 	 -28.2112 	 55.6974 	 109.941 	 
C 	 -29.1563 	 54.8199 	 110.38 	 
H 	 -28.1766 	 56.1565 	 108.955 	 
C 	 -25.9806 	 56.8546 	 110.619 	 
H 	 -25.5752 	 56.3791 	 109.727 	 
H 	 -25.3342 	 56.6631 	 111.373 	 
C 	 -26.3802 	 58.3543 	 110.473 	 
H 	 -27.0517 	 58.5005 	 109.658 	 
H 	 -26.8249 	 58.6746 	 111.388 	 
C 	 -25.1415 	 59.2362 	 110.144 	 
H 	 -25.5342 	 60.2707 	 109.929 	 
H 	 -24.3733 	 59.2097 	 110.928 	 
H 	 -24.7138 	 58.8429 	 109.195 	 
S 	 -31.8379 	 54.1342 	 110.525 	 
C 	 -32.6259 	 53.4529 	 109.073 	 
C 	 -31.8051 	 53.5511 	 107.972 	 
C 	 -30.5101 	 54.0847 	 108.28 	 
C 	 -30.3002 	 54.3654 	 109.612 	 
H 	 -32.1735 	 53.2961 	 107.021 	 
C 	 -29.5063 	 54.1789 	 107.181 	 
H 	 -29.6947 	 53.3398 	 106.502 	 
H 	 -28.5157 	 53.8882 	 107.519 	 
C 	 -29.4348 	 55.4279 	 106.272 	 
H 	 -28.5473 	 55.6044 	 105.693 	 
H 	 -29.5306 	 56.225 	 106.95 	 
C 	 -30.5702 	 55.4686 	 105.292 	 
H 	 -31.5076 	 55.1176 	 105.73 	 
H 	 -30.4215 	 54.8511 	 104.426 	 
H 	 -30.7174 	 56.4457 	 104.955 	 
H 	 -26.8495 	 55.5042 	 112.969 	 
H 	 -33.6148 	 53.0981 	 109.028 	 
