34

S 	 -3.35478 	 -4.00093 	 80.459 	 
C 	 -3.87136 	 -5.6983 	 80.4905 	 
C 	 -4.15716 	 -6.19538 	 81.7868 	 
C 	 -4.02542 	 -5.14106 	 82.7062 	 
C 	 -3.53945 	 -3.91167 	 82.174 	 
H 	 -4.18905 	 -5.0024 	 83.7621 	 
C 	 -4.83068 	 -7.51061 	 82.0909 	 
H 	 -4.09775 	 -8.15547 	 82.3513 	 
H 	 -5.09245 	 -7.99291 	 81.0998 	 
C 	 -6.04761 	 -7.60941 	 82.9943 	 
H 	 -6.20153 	 -8.68301 	 83.1819 	 
H 	 -5.92515 	 -7.1537 	 84.0025 	 
C 	 -7.32687 	 -7.07174 	 82.3905 	 
H 	 -7.75441 	 -7.48806 	 81.4382 	 
H 	 -8.162 	 -7.25348 	 83.1064 	 
H 	 -7.12336 	 -6.00824 	 82.3517 	 
S 	 -4.62624 	 -1.5618 	 82.7428 	 
C 	 -4.19228 	 -0.66555 	 84.2047 	 
C 	 -3.07763 	 -1.22559 	 84.7699 	 
C 	 -2.67009 	 -2.41017 	 84.1528 	 
C 	 -3.37556 	 -2.7167 	 82.9953 	 
H 	 -2.66063 	 -0.77356 	 85.7004 	 
C 	 -1.52905 	 -3.22704 	 84.6892 	 
H 	 -0.857163 	 -2.597 	 85.316 	 
H 	 -1.06169 	 -3.69718 	 83.7974 	 
C 	 -1.83723 	 -4.37867 	 85.6627 	 
H 	 -0.947148 	 -4.98284 	 85.5489 	 
H 	 -2.63436 	 -4.97971 	 85.278 	 
C 	 -2.04921 	 -3.99422 	 87.1731 	 
H 	 -1.15699 	 -3.51493 	 87.4235 	 
H 	 -2.33704 	 -4.81002 	 87.8422 	 
H 	 -2.83878 	 -3.2749 	 87.425 	 
H 	 -3.95481 	 -6.37656 	 79.716 	 
H 	 -4.43501 	 0.328998 	 84.5093 	 
