34

S 	 -69.8436 	 38.9168 	 123.703 	 
C 	 -70.3962 	 40.5641 	 123.931 	 
C 	 -69.2984 	 41.4213 	 123.93 	 
C 	 -68.0448 	 40.6884 	 123.84 	 
C 	 -68.1813 	 39.3348 	 123.946 	 
H 	 -67.0986 	 41.1584 	 123.826 	 
C 	 -69.4052 	 42.9097 	 124.08 	 
H 	 -70.3971 	 43.2773 	 124.341 	 
H 	 -69.1518 	 43.4421 	 123.176 	 
C 	 -68.5983 	 43.5105 	 125.145 	 
H 	 -68.6317 	 42.9647 	 126.118 	 
H 	 -67.5881 	 43.3968 	 124.814 	 
C 	 -68.8229 	 45.0394 	 125.264 	 
H 	 -67.9238 	 45.4818 	 125.748 	 
H 	 -68.8845 	 45.5004 	 124.341 	 
H 	 -69.7473 	 45.2606 	 125.794 	 
S 	 -67.2517 	 37.2151 	 122.444 	 
C 	 -65.6413 	 36.5164 	 122.824 	 
C 	 -65.0548 	 37.1567 	 123.897 	 
C 	 -65.8331 	 38.3033 	 124.339 	 
C 	 -67.1057 	 38.3719 	 123.79 	 
H 	 -64.013 	 36.8687 	 124.104 	 
C 	 -65.202 	 39.2939 	 125.371 	 
H 	 -65.877 	 39.6586 	 126.15 	 
H 	 -65.2102 	 40.2054 	 124.683 	 
C 	 -63.8633 	 39.0027 	 126.068 	 
H 	 -63.8343 	 38.0517 	 126.619 	 
H 	 -63.83 	 39.5992 	 126.973 	 
C 	 -62.6626 	 39.2307 	 125.185 	 
H 	 -61.6986 	 39.1785 	 125.722 	 
H 	 -62.614 	 40.3578 	 125.1 	 
H 	 -62.5317 	 38.8057 	 124.161 	 
H 	 -71.3691 	 40.9435 	 123.956 	 
H 	 -65.165 	 35.7036 	 122.226 	 
