34

S 	 -43.2117 	 25.5844 	 76.2271 	 
C 	 -43.8227 	 24.8435 	 77.7505 	 
C 	 -42.9964 	 23.7925 	 78.1658 	 
C 	 -42.0842 	 23.4266 	 77.0953 	 
C 	 -41.9025 	 24.3827 	 76.1404 	 
H 	 -41.4638 	 22.5304 	 77.0912 	 
C 	 -43.2285 	 23.0674 	 79.455 	 
H 	 -44.0412 	 22.3953 	 79.4619 	 
H 	 -43.4802 	 23.8319 	 80.1788 	 
C 	 -42.0654 	 22.2547 	 80.0931 	 
H 	 -42.3334 	 21.6133 	 80.9903 	 
H 	 -41.8006 	 21.553 	 79.3329 	 
C 	 -40.7455 	 22.9043 	 80.5352 	 
H 	 -40.8385 	 23.6054 	 81.4114 	 
H 	 -40.0057 	 22.2141 	 80.9191 	 
H 	 -40.1832 	 23.3415 	 79.664 	 
S 	 -40.3744 	 22.8356 	 74.3555 	 
C 	 -39.3538 	 23.6564 	 73.1856 	 
C 	 -39.34 	 25.0034 	 73.3809 	 
C 	 -40.2018 	 25.399 	 74.4643 	 
C 	 -40.9407 	 24.3517 	 75.0151 	 
H 	 -38.8436 	 25.6298 	 72.7381 	 
C 	 -40.3201 	 26.9042 	 74.7856 	 
H 	 -39.275 	 27.2997 	 74.902 	 
H 	 -40.7803 	 27.0059 	 75.7426 	 
C 	 -41.1218 	 27.6879 	 73.705 	 
H 	 -42.2175 	 27.3854 	 73.6362 	 
H 	 -40.6415 	 27.5797 	 72.7581 	 
C 	 -41.0596 	 29.1663 	 74.1208 	 
H 	 -41.3947 	 29.2791 	 75.1243 	 
H 	 -41.8304 	 29.7551 	 73.5724 	 
H 	 -40.0747 	 29.5638 	 74.1448 	 
H 	 -44.5173 	 25.4044 	 78.3163 	 
H 	 -38.9957 	 23.1086 	 72.2959 	 
