34

S 	 -11.709 	 74.1627 	 47.7195 	 
C 	 -12.3981 	 75.6413 	 48.4863 	 
C 	 -12.6615 	 75.3588 	 49.8186 	 
C 	 -12.2583 	 74.0358 	 50.2183 	 
C 	 -11.6854 	 73.2839 	 49.2214 	 
H 	 -12.2458 	 73.6714 	 51.2442 	 
C 	 -13.2962 	 76.3176 	 50.8083 	 
H 	 -13.4538 	 77.3361 	 50.3789 	 
H 	 -12.6001 	 76.4087 	 51.6626 	 
C 	 -14.6512 	 75.8775 	 51.3118 	 
H 	 -15.3643 	 75.9748 	 50.4927 	 
H 	 -14.5156 	 74.77 	 51.5179 	 
C 	 -15.1303 	 76.7388 	 52.5189 	 
H 	 -15.8174 	 76.2118 	 53.1297 	 
H 	 -14.3163 	 76.9494 	 53.1519 	 
H 	 -15.5168 	 77.6803 	 52.0483 	 
S 	 -10.0963 	 71.6668 	 50.7969 	 
C 	 -9.86236 	 70.0551 	 50.3222 	 
C 	 -10.3888 	 69.7521 	 49.132 	 
C 	 -11.0806 	 70.8432 	 48.539 	 
C 	 -11.0724 	 71.968 	 49.3592 	 
H 	 -10.282 	 68.7313 	 48.7853 	 
C 	 -11.9094 	 70.7656 	 47.2913 	 
H 	 -11.4959 	 70.0795 	 46.6823 	 
H 	 -11.8538 	 71.7155 	 46.7267 	 
C 	 -13.4048 	 70.2521 	 47.4093 	 
H 	 -13.9382 	 70.6862 	 48.2426 	 
H 	 -13.4199 	 69.2642 	 47.6969 	 
C 	 -14.2472 	 70.221 	 46.1989 	 
H 	 -13.8445 	 69.602 	 45.3865 	 
H 	 -14.4033 	 71.238 	 45.824 	 
H 	 -15.222 	 69.7618 	 46.4611 	 
H 	 -12.4743 	 76.628 	 48.0472 	 
H 	 -9.40314 	 69.2688 	 50.894 	 
