34

S 	 -62.9291 	 36.313 	 118.196 	 
C 	 -63.5323 	 35.7197 	 119.751 	 
C 	 -64.2159 	 36.7028 	 120.437 	 
C 	 -64.4737 	 37.7868 	 119.618 	 
C 	 -63.9243 	 37.7336 	 118.357 	 
H 	 -65.0383 	 38.6654 	 119.927 	 
C 	 -64.8707 	 36.5434 	 121.85 	 
H 	 -65.4519 	 37.5033 	 121.981 	 
H 	 -64.0607 	 36.4521 	 122.63 	 
C 	 -65.9567 	 35.4694 	 122.01 	 
H 	 -66.3652 	 35.592 	 122.994 	 
H 	 -66.7793 	 35.7198 	 121.303 	 
C 	 -65.3572 	 34.0278 	 121.902 	 
H 	 -66.0889 	 33.1802 	 122.159 	 
H 	 -65.0979 	 33.9072 	 120.882 	 
H 	 -64.4254 	 33.873 	 122.502 	 
S 	 -62.5403 	 39.1978 	 116.539 	 
C 	 -63.3323 	 40.4987 	 115.663 	 
C 	 -64.688 	 40.3413 	 115.771 	 
C 	 -65.1186 	 39.3433 	 116.701 	 
C 	 -64.0557 	 38.668 	 117.288 	 
H 	 -65.361 	 40.9985 	 115.21 	 
C 	 -66.5972 	 38.9951 	 116.921 	 
H 	 -66.697 	 38.0542 	 117.497 	 
H 	 -67.0312 	 38.6829 	 115.925 	 
C 	 -67.4527 	 40.2141 	 117.532 	 
H 	 -68.5425 	 39.9033 	 117.551 	 
H 	 -67.4582 	 41.0597 	 116.842 	 
C 	 -66.946 	 40.6406 	 118.939 	 
H 	 -66.6955 	 39.7696 	 119.488 	 
H 	 -67.6762 	 41.1934 	 119.464 	 
H 	 -65.9852 	 41.2108 	 118.855 	 
H 	 -63.2251 	 34.7518 	 120.157 	 
H 	 -62.9338 	 41.0554 	 114.823 	 
