34

S 	 -16.5627 	 31.4277 	 38.0244 	 
C 	 -16.913 	 32.9352 	 38.8761 	 
C 	 -17.5885 	 33.7823 	 37.9837 	 
C 	 -17.7804 	 33.206 	 36.6639 	 
C 	 -17.247 	 31.9387 	 36.4946 	 
H 	 -18.1799 	 33.7054 	 35.7988 	 
C 	 -18.183 	 35.1125 	 38.3939 	 
H 	 -17.5379 	 35.4474 	 39.2462 	 
H 	 -19.1929 	 35.0489 	 38.7302 	 
C 	 -18.1486 	 36.2532 	 37.3438 	 
H 	 -17.1036 	 36.3949 	 37.146 	 
H 	 -18.6679 	 35.8699 	 36.4511 	 
C 	 -18.7515 	 37.5341 	 38.0178 	 
H 	 -18.8379 	 38.3266 	 37.2912 	 
H 	 -19.7448 	 37.4015 	 38.484 	 
H 	 -18.0697 	 37.9582 	 38.7392 	 
S 	 -17.9115 	 29.5948 	 35.3771 	 
C 	 -17.4856 	 29.2113 	 33.6934 	 
C 	 -16.8122 	 30.2368 	 33.1401 	 
C 	 -16.6737 	 31.3682 	 34.0357 	 
C 	 -17.1844 	 31.1528 	 35.271 	 
H 	 -16.4197 	 30.0293 	 32.1529 	 
C 	 -16.0535 	 32.6049 	 33.654 	 
H 	 -15.0083 	 32.3672 	 33.4 	 
H 	 -16.0125 	 33.3039 	 34.4749 	 
C 	 -16.52 	 33.3101 	 32.4039 	 
H 	 -16.4634 	 32.6816 	 31.4952 	 
H 	 -15.9207 	 34.2067 	 32.2604 	 
C 	 -17.9169 	 33.9297 	 32.5635 	 
H 	 -18.3274 	 34.2486 	 31.6226 	 
H 	 -17.7791 	 34.7873 	 33.2346 	 
H 	 -18.6158 	 33.1411 	 32.8206 	 
H 	 -16.8798 	 33.1466 	 39.9298 	 
H 	 -17.8233 	 28.3209 	 33.1374 	 
