34

S 	 13.6922 	 3.29522 	 63.6532 	 
C 	 12.8191 	 2.82046 	 62.1912 	 
C 	 13.0995 	 1.4835 	 61.8387 	 
C 	 14.0334 	 0.88832 	 62.7235 	 
C 	 14.5602 	 1.75481 	 63.7364 	 
H 	 14.4802 	 -0.13288 	 62.6995 	 
C 	 12.5731 	 0.763036 	 60.6099 	 
H 	 12.8588 	 1.49934 	 59.8701 	 
H 	 11.5361 	 0.653144 	 60.6596 	 
C 	 13.3441 	 -0.504547 	 60.2018 	 
H 	 14.4227 	 -0.312108 	 60.1959 	 
H 	 13.1336 	 -1.31311 	 60.8466 	 
C 	 12.9186 	 -1.01514 	 58.7742 	 
H 	 13.1257 	 -0.276909 	 57.9134 	 
H 	 13.2333 	 -2.01026 	 58.5042 	 
H 	 11.8216 	 -1.04265 	 58.6457 	 
S 	 14.9113 	 1.74847 	 66.4077 	 
C 	 16.3206 	 1.22466 	 67.1682 	 
C 	 17.2025 	 0.789465 	 66.227 	 
C 	 16.738 	 0.855023 	 64.8962 	 
C 	 15.455 	 1.40062 	 64.8168 	 
H 	 18.1568 	 0.629454 	 66.6105 	 
C 	 17.6164 	 0.561271 	 63.6868 	 
H 	 17.1947 	 -0.292192 	 63.1563 	 
H 	 18.4861 	 0.0610666 	 64.0756 	 
C 	 17.8431 	 1.72606 	 62.6569 	 
H 	 16.8661 	 2.04097 	 62.1505 	 
H 	 18.3927 	 1.36864 	 61.7891 	 
C 	 18.6147 	 2.85073 	 63.3101 	 
H 	 19.5933 	 2.48309 	 63.7596 	 
H 	 18.0564 	 3.38647 	 64.119 	 
H 	 18.7202 	 3.63859 	 62.5749 	 
H 	 12.2909 	 3.6393 	 61.6315 	 
H 	 16.5023 	 1.30072 	 68.2402 	 
