34

S 	 12.1972 	 -7.38247 	 95.3969 	 
C 	 11.4784 	 -6.02273 	 96.2288 	 
C 	 10.5688 	 -5.43819 	 95.3766 	 
C 	 10.5151 	 -6.05246 	 94.1064 	 
C 	 11.2824 	 -7.17487 	 93.9865 	 
H 	 9.90012 	 -5.71881 	 93.2336 	 
C 	 9.74107 	 -4.15117 	 95.5175 	 
H 	 9.6938 	 -3.71222 	 94.5126 	 
H 	 10.3392 	 -3.43849 	 96.2005 	 
C 	 8.37231 	 -4.43092 	 96.0879 	 
H 	 7.71478 	 -3.5799 	 95.906 	 
H 	 7.95027 	 -5.23957 	 95.5331 	 
C 	 8.4515 	 -4.53079 	 97.5888 	 
H 	 9.16704 	 -5.19382 	 97.96 	 
H 	 8.71521 	 -3.57183 	 97.9904 	 
H 	 7.51608 	 -4.80285 	 98.0169 	 
S 	 13.2641 	 -8.3267 	 92.4711 	 
C 	 12.924 	 -9.24472 	 90.9787 	 
C 	 11.5974 	 -9.11894 	 90.6881 	 
C 	 10.7811 	 -8.35841 	 91.6612 	 
C 	 11.5699 	 -7.89924 	 92.7293 	 
H 	 11.2148 	 -9.67435 	 89.7565 	 
C 	 9.32024 	 -8.30263 	 91.5597 	 
H 	 8.96495 	 -7.32721 	 91.2625 	 
H 	 8.8828 	 -8.26899 	 92.5266 	 
C 	 8.61564 	 -9.33153 	 90.7048 	 
H 	 8.84851 	 -10.2698 	 91.0986 	 
H 	 8.98642 	 -9.28395 	 89.7185 	 
C 	 7.08131 	 -9.34529 	 90.6329 	 
H 	 6.5929 	 -10.1401 	 89.9695 	 
H 	 6.59367 	 -8.38369 	 90.5031 	 
H 	 6.66307 	 -9.54576 	 91.6133 	 
H 	 11.4793 	 -5.77846 	 97.2566 	 
H 	 13.6804 	 -9.80686 	 90.2997 	 
