34

S 	 36.9327 	 10.9548 	 80.0836 	 
C 	 38.61 	 10.8597 	 80.517 	 
C 	 39.4119 	 10.7268 	 79.4533 	 
C 	 38.7249 	 10.844 	 78.2032 	 
C 	 37.3886 	 11.1531 	 78.3324 	 
H 	 39.1675 	 10.8034 	 77.2224 	 
C 	 40.8765 	 10.2911 	 79.4282 	 
H 	 41.196 	 10.4578 	 80.4557 	 
H 	 41.4042 	 10.9977 	 78.7714 	 
C 	 41.1603 	 8.8819 	 78.9501 	 
H 	 40.8885 	 8.67872 	 77.8854 	 
H 	 42.2818 	 8.62239 	 78.9393 	 
C 	 40.533 	 7.70729 	 79.7199 	 
H 	 40.8256 	 7.78378 	 80.7899 	 
H 	 39.4035 	 7.83844 	 79.7626 	 
H 	 40.8336 	 6.72028 	 79.4277 	 
S 	 35.1465 	 9.85353 	 77.393 	 
C 	 34.2568 	 10.4957 	 76.0532 	 
C 	 34.9715 	 11.5158 	 75.4139 	 
C 	 36.1684 	 11.8888 	 76.1392 	 
C 	 36.373 	 11.1288 	 77.3224 	 
H 	 34.7085 	 11.8682 	 74.4642 	 
C 	 37.0643 	 13.0874 	 75.8022 	 
H 	 37.4618 	 13.4415 	 76.7115 	 
H 	 36.3659 	 13.8559 	 75.5032 	 
C 	 38.2252 	 12.7027 	 74.7963 	 
H 	 38.8984 	 12.0225 	 75.4156 	 
H 	 38.7948 	 13.6139 	 74.5322 	 
C 	 37.7254 	 12.1015 	 73.5151 	 
H 	 38.573 	 12.0323 	 72.8413 	 
H 	 37.0225 	 12.6551 	 73.0066 	 
H 	 37.3426 	 11.1084 	 73.6638 	 
H 	 39.005 	 10.65 	 81.4945 	 
H 	 33.4122 	 10.1033 	 75.5567 	 
