34

S 	 12.381 	 -6.68744 	 74.1734 	 
C 	 12.3241 	 -5.106 	 74.9441 	 
C 	 11.5687 	 -4.19444 	 74.216 	 
C 	 10.9601 	 -4.8154 	 73.0931 	 
C 	 11.3231 	 -6.16509 	 72.9522 	 
H 	 10.2869 	 -4.42002 	 72.4067 	 
C 	 11.1986 	 -2.80937 	 74.6421 	 
H 	 11.6011 	 -2.71777 	 75.5877 	 
H 	 10.1163 	 -2.70403 	 74.6398 	 
C 	 11.8613 	 -1.71125 	 73.8276 	 
H 	 12.8685 	 -2.0618 	 73.6549 	 
H 	 11.5478 	 -1.7218 	 72.8101 	 
C 	 11.6335 	 -0.323849 	 74.4462 	 
H 	 10.5264 	 -0.0789811 	 74.5707 	 
H 	 12.1313 	 -0.149203 	 75.3617 	 
H 	 11.9228 	 0.416231 	 73.6925 	 
S 	 11.9188 	 -8.07448 	 70.943 	 
C 	 10.6719 	 -8.55728 	 69.8712 	 
C 	 9.51305 	 -7.99738 	 70.2129 	 
C 	 9.60433 	 -7.11052 	 71.3551 	 
C 	 10.8548 	 -7.10851 	 71.9498 	 
H 	 8.63221 	 -8.08425 	 69.5829 	 
C 	 8.37171 	 -6.50144 	 72.0808 	 
H 	 8.04198 	 -5.61199 	 71.7231 	 
H 	 8.57997 	 -6.27685 	 73.132 	 
C 	 7.14642 	 -7.5295 	 72.2142 	 
H 	 7.31516 	 -8.28323 	 73.0449 	 
H 	 6.97051 	 -8.03083 	 71.2632 	 
C 	 5.78924 	 -6.83684 	 72.52 	 
H 	 5.61869 	 -5.9896 	 71.9029 	 
H 	 5.74695 	 -6.52305 	 73.5636 	 
H 	 4.99728 	 -7.54696 	 72.5075 	 
H 	 12.7449 	 -4.82768 	 75.8941 	 
H 	 10.8861 	 -9.24407 	 69.1266 	 
