34

S 	 35.7713 	 -5.89399 	 71.3413 	 
C 	 35.9384 	 -5.27865 	 72.9992 	 
C 	 34.8827 	 -4.44271 	 73.4222 	 
C 	 33.9613 	 -4.23718 	 72.3283 	 
C 	 34.4486 	 -4.8018 	 71.1057 	 
H 	 33.0909 	 -3.65108 	 72.2205 	 
C 	 34.7831 	 -3.70516 	 74.7824 	 
H 	 35.8464 	 -3.6957 	 75.1828 	 
H 	 34.4447 	 -4.42363 	 75.5613 	 
C 	 34.2704 	 -2.26773 	 74.8101 	 
H 	 34.5371 	 -1.71011 	 73.8946 	 
H 	 33.1534 	 -2.37507 	 74.8713 	 
C 	 34.8837 	 -1.52703 	 76.0202 	 
H 	 35.9821 	 -1.37949 	 75.8739 	 
H 	 34.5269 	 -0.531187 	 75.965 	 
H 	 34.6522 	 -1.80286 	 77.0265 	 
S 	 33.7212 	 -6.09609 	 68.7694 	 
C 	 32.964 	 -5.20542 	 67.4629 	 
C 	 33.0123 	 -3.89789 	 67.7597 	 
C 	 33.4641 	 -3.57443 	 69.0722 	 
C 	 33.8777 	 -4.70107 	 69.7644 	 
H 	 32.7453 	 -3.18399 	 67.0005 	 
C 	 33.3575 	 -2.16126 	 69.5955 	 
H 	 34.1235 	 -1.77486 	 69.0002 	 
H 	 33.6992 	 -2.01916 	 70.6667 	 
C 	 32.0594 	 -1.38254 	 69.2844 	 
H 	 31.3362 	 -1.8569 	 69.9303 	 
H 	 31.6814 	 -1.55271 	 68.2592 	 
C 	 32.1926 	 0.132945 	 69.4539 	 
H 	 32.9515 	 0.490855 	 68.7329 	 
H 	 32.4489 	 0.301676 	 70.5225 	 
H 	 31.2873 	 0.635433 	 69.1895 	 
H 	 36.7539 	 -5.6271 	 73.6546 	 
H 	 32.6847 	 -5.6659 	 66.4987 	 
