34

S 	 39.421 	 17.5062 	 64.8424 	 
C 	 38.3415 	 18.6591 	 65.5667 	 
C 	 38.4578 	 18.6206 	 66.9306 	 
C 	 39.393 	 17.6408 	 67.4138 	 
C 	 40.0504 	 17.011 	 66.397 	 
H 	 39.6927 	 17.4483 	 68.4306 	 
C 	 37.4585 	 19.2964 	 67.8412 	 
H 	 37.4434 	 18.5347 	 68.697 	 
H 	 36.4872 	 19.2938 	 67.3889 	 
C 	 37.8047 	 20.6394 	 68.4389 	 
H 	 38.5252 	 20.5485 	 69.221 	 
H 	 38.2437 	 21.3693 	 67.7586 	 
C 	 36.6377 	 21.3814 	 69.0507 	 
H 	 36.024 	 21.7977 	 68.2269 	 
H 	 36.0706 	 20.6943 	 69.6378 	 
H 	 36.9439 	 22.2719 	 69.5609 	 
S 	 42.507 	 16.3653 	 67.3823 	 
C 	 43.1923 	 14.6975 	 67.3181 	 
C 	 42.2095 	 13.8613 	 66.7937 	 
C 	 41.0357 	 14.5718 	 66.2683 	 
C 	 41.0219 	 15.9277 	 66.549 	 
H 	 42.3659 	 12.7909 	 66.907 	 
C 	 39.8638 	 13.9211 	 65.5649 	 
H 	 39.6151 	 14.7407 	 64.9557 	 
H 	 39.0756 	 13.7091 	 66.2284 	 
C 	 40.2151 	 12.6566 	 64.803 	 
H 	 39.2396 	 12.2621 	 64.3886 	 
H 	 40.6081 	 11.9048 	 65.5107 	 
C 	 41.0002 	 13.0143 	 63.4931 	 
H 	 40.4477 	 13.7917 	 62.9731 	 
H 	 41.0419 	 12.2791 	 62.784 	 
H 	 41.9726 	 13.3867 	 63.6612 	 
H 	 37.5726 	 19.2423 	 65.1187 	 
H 	 44.1539 	 14.4145 	 67.7283 	 
