34

S 	 12.7326 	 25.2288 	 46.7635 	 
C 	 12.9307 	 24.2482 	 48.2638 	 
C 	 13.4121 	 22.9912 	 47.8279 	 
C 	 13.2444 	 22.765 	 46.4081 	 
C 	 12.8944 	 23.8795 	 45.7507 	 
H 	 13.4294 	 21.8042 	 45.8598 	 
C 	 13.9477 	 21.9636 	 48.7174 	 
H 	 13.8095 	 21.0184 	 48.1361 	 
H 	 13.2957 	 21.893 	 49.5699 	 
C 	 15.4103 	 22.1209 	 49.2278 	 
H 	 15.4136 	 22.9414 	 49.8973 	 
H 	 15.7221 	 21.2162 	 49.7852 	 
C 	 16.4165 	 22.3495 	 48.1174 	 
H 	 16.4201 	 23.4206 	 47.9656 	 
H 	 17.4715 	 22.1658 	 48.337 	 
H 	 16.1747 	 21.8805 	 47.2012 	 
S 	 14.1601 	 24.1687 	 43.4302 	 
C 	 13.3057 	 24.0802 	 41.9359 	 
C 	 11.9296 	 24.1495 	 42.15 	 
C 	 11.6255 	 24.034 	 43.5091 	 
C 	 12.7287 	 23.9764 	 44.3461 	 
H 	 11.2517 	 24.1393 	 41.2918 	 
C 	 10.2247 	 23.9373 	 43.9477 	 
H 	 10.1701 	 23.2778 	 44.8074 	 
H 	 9.65186 	 23.3504 	 43.2061 	 
C 	 9.57999 	 25.276 	 44.2038 	 
H 	 9.74472 	 25.945 	 43.3599 	 
H 	 10.107 	 25.7328 	 45.0772 	 
C 	 8.09513 	 25.0884 	 44.4094 	 
H 	 7.56448 	 26.0844 	 44.4083 	 
H 	 7.87181 	 24.6536 	 45.3318 	 
H 	 7.49395 	 24.6384 	 43.6407 	 
H 	 12.9898 	 24.6469 	 49.2969 	 
H 	 13.6543 	 24.1892 	 40.867 	 
