34

S 	 56.3789 	 11.9056 	 75.613 	 
C 	 57.483 	 13.2914 	 75.5782 	 
C 	 58.8179 	 12.8741 	 75.8347 	 
C 	 58.8375 	 11.4879 	 76.3113 	 
C 	 57.5934 	 10.9169 	 76.3472 	 
H 	 59.6584 	 10.7717 	 76.5026 	 
C 	 60.0728 	 13.6123 	 75.3852 	 
H 	 59.9079 	 13.942 	 74.3198 	 
H 	 60.9332 	 12.972 	 75.4147 	 
C 	 60.3646 	 14.8678 	 76.1438 	 
H 	 59.4955 	 15.5132 	 76.112 	 
H 	 60.3921 	 14.8544 	 77.2226 	 
C 	 61.713 	 15.5278 	 75.7066 	 
H 	 62.0245 	 16.3009 	 76.4008 	 
H 	 62.4422 	 14.7187 	 75.6141 	 
H 	 61.5873 	 16.0282 	 74.7095 	 
S 	 57.155 	 9.56422 	 78.6717 	 
C 	 56.3548 	 7.95793 	 78.6587 	 
C 	 56.1415 	 7.54404 	 77.4054 	 
C 	 56.4866 	 8.54178 	 76.4249 	 
C 	 57.1944 	 9.62455 	 76.9377 	 
H 	 55.5822 	 6.64725 	 77.1816 	 
C 	 56.3519 	 8.26009 	 74.973 	 
H 	 56.0619 	 9.13261 	 74.4031 	 
H 	 55.587 	 7.48072 	 74.7537 	 
C 	 57.6377 	 7.80907 	 74.2974 	 
H 	 58.1282 	 6.97245 	 74.7971 	 
H 	 58.3687 	 8.62963 	 74.3309 	 
C 	 57.397 	 7.48726 	 72.7911 	 
H 	 58.3352 	 7.16749 	 72.2619 	 
H 	 57.0497 	 8.46995 	 72.2923 	 
H 	 56.6139 	 6.73092 	 72.7408 	 
H 	 57.2067 	 14.2056 	 75.0933 	 
H 	 55.9779 	 7.4163 	 79.4925 	 
