34

S 	 -18.9359 	 -9.11589 	 82.3847 	 
C 	 -17.8958 	 -9.67636 	 81.095 	 
C 	 -16.8507 	 -8.83905 	 80.9553 	 
C 	 -16.8973 	 -7.74577 	 81.8729 	 
C 	 -17.8639 	 -7.8521 	 82.8768 	 
H 	 -16.0585 	 -7.05142 	 81.9088 	 
C 	 -15.6996 	 -9.01508 	 79.9384 	 
H 	 -15.5403 	 -10.081 	 79.875 	 
H 	 -14.7291 	 -8.65126 	 80.2889 	 
C 	 -16.0108 	 -8.49374 	 78.5334 	 
H 	 -17.0608 	 -8.80289 	 78.323 	 
H 	 -16.0196 	 -7.39994 	 78.6398 	 
C 	 -15.0271 	 -8.9542 	 77.479 	 
H 	 -14.0534 	 -8.55645 	 77.6154 	 
H 	 -14.8577 	 -10.045 	 77.426 	 
H 	 -15.3345 	 -8.5905 	 76.5698 	 
S 	 -17.5528 	 -7.80482 	 85.6416 	 
C 	 -17.6631 	 -6.23812 	 86.4382 	 
C 	 -18.5015 	 -5.37541 	 85.7385 	 
C 	 -18.724 	 -5.80479 	 84.3968 	 
C 	 -18.1375 	 -7.04215 	 84.1001 	 
H 	 -18.9046 	 -4.46583 	 86.1601 	 
C 	 -19.461 	 -5.08911 	 83.3048 	 
H 	 -20.2235 	 -4.44403 	 83.7232 	 
H 	 -19.9976 	 -5.84969 	 82.8092 	 
C 	 -18.5292 	 -4.25467 	 82.3021 	 
H 	 -17.9916 	 -5.1194 	 81.8391 	 
H 	 -18.0056 	 -3.56896 	 83.0486 	 
C 	 -19.1645 	 -3.27933 	 81.253 	 
H 	 -18.4152 	 -2.60294 	 80.9093 	 
H 	 -19.9745 	 -2.75208 	 81.7534 	 
H 	 -19.5216 	 -3.81689 	 80.4427 	 
H 	 -18.0894 	 -10.6154 	 80.5035 	 
H 	 -17.3308 	 -6.12147 	 87.4541 	 
