34

S 	 -94.7769 	 56.9178 	 131.927 	 
C 	 -93.7038 	 57.8962 	 132.83 	 
C 	 -94.3463 	 59.0641 	 133.201 	 
C 	 -95.7062 	 59.1592 	 132.807 	 
C 	 -96.0642 	 58.0987 	 132.036 	 
H 	 -96.3826 	 59.9773 	 132.902 	 
C 	 -93.6997 	 60.1429 	 134.06 	 
H 	 -93.2862 	 59.758 	 134.996 	 
H 	 -94.5044 	 60.7721 	 134.422 	 
C 	 -92.5047 	 60.9407 	 133.439 	 
H 	 -91.6486 	 60.2497 	 133.437 	 
H 	 -92.6658 	 61.29 	 132.469 	 
C 	 -92.076 	 62.1573 	 134.256 	 
H 	 -91.1098 	 62.5354 	 133.933 	 
H 	 -92.7705 	 62.9017 	 133.996 	 
H 	 -92.1601 	 62.0286 	 135.314 	 
S 	 -97.9722 	 56.1433 	 132.299 	 
C 	 -99.5854 	 56.268 	 131.483 	 
C 	 -99.7272 	 57.5025 	 130.971 	 
C 	 -98.5087 	 58.3057 	 131.099 	 
C 	 -97.469 	 57.699 	 131.784 	 
H 	 -100.603 	 57.7513 	 130.392 	 
C 	 -98.2676 	 59.5717 	 130.369 	 
H 	 -97.7071 	 60.3374 	 130.907 	 
H 	 -99.2548 	 60.031 	 130.256 	 
C 	 -97.7724 	 59.4126 	 128.906 	 
H 	 -98.4501 	 58.7124 	 128.362 	 
H 	 -96.7803 	 59.0476 	 129.067 	 
C 	 -97.5993 	 60.7414 	 128.222 	 
H 	 -96.9986 	 61.4484 	 128.837 	 
H 	 -98.5455 	 61.1455 	 127.862 	 
H 	 -96.9676 	 60.6922 	 127.3 	 
H 	 -92.6384 	 57.6143 	 132.911 	 
H 	 -100.473 	 55.6629 	 131.521 	 
