34

S 	 11.6869 	 2.03627 	 87.7166 	 
C 	 12.9276 	 2.29671 	 88.8206 	 
C 	 13.5063 	 3.55663 	 88.6426 	 
C 	 12.882 	 4.27896 	 87.6292 	 
C 	 11.8214 	 3.5931 	 86.9984 	 
H 	 13.2527 	 5.25441 	 87.411 	 
C 	 14.7451 	 3.87215 	 89.4788 	 
H 	 14.5536 	 3.40314 	 90.4804 	 
H 	 14.8745 	 4.94414 	 89.6801 	 
C 	 16.0866 	 3.41534 	 88.8113 	 
H 	 16.3835 	 4.00097 	 87.8883 	 
H 	 16.9032 	 3.59971 	 89.5432 	 
C 	 16.1038 	 1.86919 	 88.4384 	 
H 	 15.5401 	 1.68733 	 87.5085 	 
H 	 17.1192 	 1.45015 	 88.2914 	 
H 	 15.6604 	 1.32527 	 89.2291 	 
S 	 9.17365 	 4.05917 	 86.5901 	 
C 	 8.6627 	 5.04889 	 85.3249 	 
C 	 9.74406 	 5.5681 	 84.6388 	 
C 	 11.011 	 5.04207 	 85.054 	 
C 	 10.856 	 4.15928 	 86.0997 	 
H 	 9.57538 	 6.32845 	 83.9288 	 
C 	 12.3053 	 5.44857 	 84.4118 	 
H 	 12.6729 	 6.1963 	 85.1788 	 
H 	 12.1044 	 5.9273 	 83.4641 	 
C 	 13.3667 	 4.36383 	 84.1828 	 
H 	 13.6533 	 3.82764 	 85.032 	 
H 	 14.3108 	 4.77024 	 83.8691 	 
C 	 12.906 	 3.35826 	 83.0655 	 
H 	 11.8715 	 2.98223 	 83.1839 	 
H 	 13.6419 	 2.50032 	 82.9898 	 
H 	 12.9371 	 3.90733 	 82.0951 	 
H 	 13.2265 	 1.50903 	 89.496 	 
H 	 7.73312 	 5.45912 	 85.1958 	 
