34

S 	 -6.09791 	 27.908 	 47.6074 	 
C 	 -4.82948 	 26.9672 	 46.9482 	 
C 	 -4.19639 	 27.6873 	 45.9885 	 
C 	 -4.50008 	 29.0877 	 45.9746 	 
C 	 -5.55755 	 29.3823 	 46.7952 	 
H 	 -4.05668 	 29.9521 	 45.5582 	 
C 	 -3.07694 	 27.1033 	 45.2459 	 
H 	 -2.85988 	 26.1026 	 45.6605 	 
H 	 -2.18528 	 27.6974 	 45.4249 	 
C 	 -3.236 	 27.1095 	 43.7336 	 
H 	 -4.19551 	 26.7569 	 43.434 	 
H 	 -3.05981 	 28.076 	 43.2427 	 
C 	 -2.43133 	 26.0487 	 43.0165 	 
H 	 -1.37753 	 26.1452 	 43.3278 	 
H 	 -2.85193 	 25.0558 	 43.0986 	 
H 	 -2.37326 	 26.2399 	 41.9558 	 
S 	 -7.99726 	 30.7029 	 47.0148 	 
C 	 -8.02626 	 32.4299 	 47.178 	 
C 	 -6.73949 	 32.9006 	 47.4066 	 
C 	 -5.71223 	 31.9027 	 47.3571 	 
C 	 -6.23325 	 30.6787 	 47.0539 	 
H 	 -6.52863 	 33.9071 	 47.6508 	 
C 	 -4.19336 	 32.2188 	 47.5301 	 
H 	 -3.58316 	 31.3088 	 47.8065 	 
H 	 -4.12351 	 32.7587 	 48.489 	 
C 	 -3.48603 	 33.0192 	 46.344 	 
H 	 -4.02996 	 33.8638 	 46.1309 	 
H 	 -3.62809 	 32.3231 	 45.4909 	 
C 	 -2.03953 	 33.3663 	 46.5492 	 
H 	 -1.45762 	 32.4418 	 46.6551 	 
H 	 -1.9494 	 33.9904 	 47.4007 	 
H 	 -1.64772 	 33.9146 	 45.7269 	 
H 	 -4.58853 	 25.9031 	 47.078 	 
H 	 -8.90693 	 33.044 	 47.4698 	 
