34

S 	 43.5716 	 12.1454 	 81.3789 	 
C 	 44.6257 	 12.555 	 82.6555 	 
C 	 45.839 	 13.0721 	 82.3012 	 
C 	 45.9115 	 13.1209 	 80.8552 	 
C 	 44.7979 	 12.5971 	 80.194 	 
H 	 46.6515 	 13.427 	 80.1722 	 
C 	 46.843 	 13.5517 	 83.3114 	 
H 	 46.4316 	 13.3951 	 84.3032 	 
H 	 46.9828 	 14.6432 	 83.2463 	 
C 	 48.2707 	 12.9346 	 83.1183 	 
H 	 48.5788 	 13.0673 	 82.0706 	 
H 	 49.0963 	 13.3274 	 83.729 	 
C 	 48.2992 	 11.4585 	 83.4326 	 
H 	 47.5079 	 10.9963 	 82.8145 	 
H 	 49.2202 	 11.088 	 83.0352 	 
H 	 48.1542 	 11.2353 	 84.5141 	 
S 	 43.8077 	 11.0321 	 78.1401 	 
C 	 43.9196 	 11.5566 	 76.516 	 
C 	 44.5661 	 12.7504 	 76.3771 	 
C 	 45.0713 	 13.2526 	 77.6132 	 
C 	 44.5537 	 12.5259 	 78.7569 	 
H 	 44.6893 	 13.1583 	 75.397 	 
C 	 45.7767 	 14.5534 	 77.6228 	 
H 	 45.3356 	 15.1294 	 78.4427 	 
H 	 45.281 	 15.0328 	 76.7916 	 
C 	 47.3077 	 14.6276 	 77.4507 	 
H 	 47.784 	 13.982 	 78.1407 	 
H 	 47.6892 	 15.6297 	 77.8044 	 
C 	 47.8464 	 14.0385 	 76.1234 	 
H 	 47.2827 	 13.1598 	 75.9814 	 
H 	 48.9522 	 13.7935 	 76.0834 	 
H 	 47.5839 	 14.767 	 75.3055 	 
H 	 44.3617 	 12.3463 	 83.6979 	 
H 	 43.4501 	 11.0727 	 75.6225 	 
