34

S 	 54.0633 	 22.3754 	 37.7666 	 
C 	 54.97 	 23.8491 	 37.5255 	 
C 	 54.9002 	 24.6818 	 38.6834 	 
C 	 53.9211 	 24.1945 	 39.5696 	 
C 	 53.393 	 22.9569 	 39.2106 	 
H 	 53.5349 	 24.69 	 40.4624 	 
C 	 55.5601 	 26.0033 	 38.7107 	 
H 	 56.5051 	 25.7681 	 38.2063 	 
H 	 55.7198 	 26.4544 	 39.7337 	 
C 	 54.6804 	 27.0275 	 37.9026 	 
H 	 54.526 	 26.8126 	 36.8175 	 
H 	 53.717 	 27.1178 	 38.4489 	 
C 	 55.1469 	 28.4602 	 38.0036 	 
H 	 55.4409 	 28.6555 	 39.0358 	 
H 	 55.9298 	 28.7074 	 37.3397 	 
H 	 54.2957 	 29.1779 	 37.8407 	 
S 	 52.8809 	 20.4568 	 40.2616 	 
C 	 51.5417 	 20.2091 	 41.356 	 
C 	 51.1193 	 21.4411 	 41.903 	 
C 	 51.5548 	 22.5755 	 41.0397 	 
C 	 52.531 	 22.1745 	 40.1272 	 
H 	 50.5464 	 21.4843 	 42.8025 	 
C 	 51.1201 	 23.9836 	 41.2312 	 
H 	 51.8013 	 24.6223 	 41.7175 	 
H 	 50.3422 	 23.8445 	 42.0207 	 
C 	 50.4182 	 24.4832 	 40.0381 	 
H 	 49.7629 	 23.7115 	 39.7232 	 
H 	 51.1018 	 24.6913 	 39.1873 	 
C 	 49.5691 	 25.7082 	 40.4087 	 
H 	 50.0364 	 26.4319 	 41.0337 	 
H 	 48.743 	 25.2266 	 41.0276 	 
H 	 49.1773 	 26.0663 	 39.4519 	 
H 	 55.7492 	 24.0793 	 36.7695 	 
H 	 51.3796 	 19.2559 	 41.8362 	 
