34

S 	 -19.9487 	 34.0009 	 36.7151 	 
C 	 -21.3889 	 33.9962 	 35.7797 	 
C 	 -21.2655 	 34.5657 	 34.5554 	 
C 	 -19.9589 	 35.0729 	 34.3421 	 
C 	 -19.1317 	 34.9577 	 35.4634 	 
H 	 -19.517 	 35.4643 	 33.4517 	 
C 	 -22.3734 	 34.6928 	 33.5297 	 
H 	 -22.0061 	 35.5177 	 32.8618 	 
H 	 -23.3421 	 34.9155 	 34.0018 	 
C 	 -22.6 	 33.4684 	 32.6582 	 
H 	 -23.3226 	 33.8124 	 31.9172 	 
H 	 -21.6332 	 33.0743 	 32.2461 	 
C 	 -23.2292 	 32.2235 	 33.3394 	 
H 	 -22.556 	 31.6409 	 33.9641 	 
H 	 -24.0506 	 32.5513 	 34.0257 	 
H 	 -23.6141 	 31.5625 	 32.4875 	 
S 	 -16.6801 	 34.0697 	 36.2017 	 
C 	 -15.2498 	 35.126 	 36.3011 	 
C 	 -15.5944 	 36.2895 	 35.6512 	 
C 	 -16.9898 	 36.4128 	 35.3485 	 
C 	 -17.7441 	 35.3187 	 35.6536 	 
H 	 -14.8226 	 37.0383 	 35.523 	 
C 	 -17.6157 	 37.7248 	 34.8876 	 
H 	 -18.6792 	 37.6549 	 34.9727 	 
H 	 -17.3658 	 37.7572 	 33.804 	 
C 	 -17.0928 	 39.0332 	 35.5519 	 
H 	 -17.5551 	 39.8837 	 35.0838 	 
H 	 -16.0045 	 39.2191 	 35.331 	 
C 	 -17.3567 	 39.1282 	 37.0976 	 
H 	 -16.9917 	 40.0768 	 37.5119 	 
H 	 -16.7239 	 38.4003 	 37.6769 	 
H 	 -18.4008 	 38.901 	 37.342 	 
H 	 -22.2856 	 33.4813 	 36.0826 	 
H 	 -14.2478 	 34.9559 	 36.5506 	 
