34

S 	 28.7466 	 28.4804 	 53.8597 	 
C 	 30.0253 	 28.4035 	 52.6323 	 
C 	 31.2431 	 28.6915 	 53.1417 	 
C 	 31.1586 	 29.0582 	 54.5725 	 
C 	 29.888 	 29.0761 	 55.1087 	 
H 	 31.9893 	 29.2954 	 55.2453 	 
C 	 32.4777 	 28.699 	 52.2937 	 
H 	 32.1976 	 28.0498 	 51.4975 	 
H 	 33.3241 	 28.3278 	 52.9334 	 
C 	 32.7794 	 30.1276 	 51.8335 	 
H 	 32.0584 	 30.4612 	 51.059 	 
H 	 32.6596 	 30.7979 	 52.7725 	 
C 	 34.1775 	 30.3773 	 51.1788 	 
H 	 34.3892 	 29.6122 	 50.4891 	 
H 	 34.4435 	 31.4135 	 50.7478 	 
H 	 34.9707 	 30.294 	 51.9402 	 
S 	 28.0039 	 28.395 	 57.0107 	 
C 	 28.0675 	 29.2583 	 58.5632 	 
C 	 29.1891 	 30.0384 	 58.6743 	 
C 	 29.8767 	 30.2917 	 57.4166 	 
C 	 29.4143 	 29.3708 	 56.4399 	 
H 	 29.3638 	 30.5903 	 59.594 	 
C 	 30.9202 	 31.3459 	 57.085 	 
H 	 30.8173 	 31.5966 	 55.9904 	 
H 	 31.875 	 30.7755 	 57.0987 	 
C 	 30.9314 	 32.6189 	 57.9023 	 
H 	 31.0605 	 32.4301 	 58.9492 	 
H 	 29.9415 	 33.0812 	 57.9897 	 
C 	 31.8638 	 33.7945 	 57.311 	 
H 	 31.6645 	 33.9243 	 56.2302 	 
H 	 32.8815 	 33.4443 	 57.4876 	 
H 	 31.7558 	 34.7313 	 57.8625 	 
H 	 29.7746 	 28.4239 	 51.6256 	 
H 	 27.521 	 28.9594 	 59.4394 	 
