34

S 	 -65.0628 	 51.8451 	 124.192 	 
C 	 -65.1153 	 50.1929 	 124.82 	 
C 	 -64.3294 	 49.2661 	 124.06 	 
C 	 -63.9739 	 49.9068 	 122.837 	 
C 	 -64.3834 	 51.2187 	 122.691 	 
H 	 -63.4626 	 49.4255 	 122.052 	 
C 	 -63.9389 	 47.8856 	 124.407 	 
H 	 -62.8714 	 47.7952 	 124.343 	 
H 	 -64.2574 	 47.3066 	 123.567 	 
C 	 -64.5039 	 47.43 	 125.791 	 
H 	 -63.8611 	 47.9162 	 126.524 	 
H 	 -65.528 	 47.6174 	 125.829 	 
C 	 -64.2865 	 45.8637 	 125.962 	 
H 	 -64.9034 	 45.3059 	 125.191 	 
H 	 -63.2211 	 45.5419 	 126.015 	 
H 	 -64.5677 	 45.5574 	 126.989 	 
S 	 -63.1144 	 53.3966 	 121.609 	 
C 	 -63.5734 	 54.023 	 120.039 	 
C 	 -64.4581 	 53.1714 	 119.466 	 
C 	 -64.786 	 52.0592 	 120.248 	 
C 	 -64.2005 	 52.0452 	 121.505 	 
H 	 -64.8549 	 53.2288 	 118.484 	 
C 	 -65.866 	 51.0843 	 119.827 	 
H 	 -66.6708 	 51.5516 	 119.181 	 
H 	 -66.5139 	 50.7594 	 120.597 	 
C 	 -65.3739 	 49.8705 	 118.936 	 
H 	 -64.8117 	 49.1203 	 119.547 	 
H 	 -64.6139 	 50.2632 	 118.248 	 
C 	 -66.5642 	 49.2073 	 118.274 	 
H 	 -66.3254 	 48.3912 	 117.593 	 
H 	 -66.88 	 50.023 	 117.499 	 
H 	 -67.4471 	 49.0164 	 118.936 	 
H 	 -65.7083 	 50.0526 	 125.741 	 
H 	 -63.1562 	 54.9128 	 119.584 	 
