34

S 	 18.4119 	 0.877339 	 70.0555 	 
C 	 17.2033 	 -0.00646041 	 69.0371 	 
C 	 17.5531 	 0.0495326 	 67.7024 	 
C 	 18.7686 	 0.809393 	 67.4582 	 
C 	 19.3845 	 1.28125 	 68.6445 	 
H 	 19.2559 	 0.912329 	 66.5702 	 
C 	 16.7574 	 -0.578841 	 66.6309 	 
H 	 17.2436 	 -1.49079 	 66.4501 	 
H 	 16.9002 	 -0.00414821 	 65.6637 	 
C 	 15.2865 	 -0.784183 	 66.906 	 
H 	 14.7757 	 -1.41341 	 66.1503 	 
H 	 15.3837 	 -1.38343 	 67.8386 	 
C 	 14.495 	 0.49641 	 67.1407 	 
H 	 13.4482 	 0.317237 	 67.4866 	 
H 	 14.9826 	 1.1609 	 67.8353 	 
H 	 14.3648 	 1.01488 	 66.1653 	 
S 	 21.7682 	 1.83886 	 70.04 	 
C 	 22.8341 	 3.1519 	 69.6029 	 
C 	 22.2302 	 3.8107 	 68.5393 	 
C 	 21.0254 	 3.21622 	 68.0334 	 
C 	 20.5544 	 2.12357 	 68.7976 	 
H 	 22.5711 	 4.68172 	 68.1546 	 
C 	 20.2747 	 3.8329 	 66.912 	 
H 	 19.6831 	 3.04731 	 66.3277 	 
H 	 21.175 	 4.1033 	 66.2537 	 
C 	 19.3027 	 4.95756 	 67.2983 	 
H 	 18.5984 	 4.46228 	 68.0075 	 
H 	 18.7872 	 5.14827 	 66.3952 	 
C 	 19.8917 	 6.2322 	 67.9534 	 
H 	 20.6561 	 6.63922 	 67.3847 	 
H 	 20.3809 	 6.00052 	 68.9022 	 
H 	 19.119 	 6.92733 	 68.1119 	 
H 	 16.2528 	 -0.239564 	 69.4531 	 
H 	 23.6874 	 3.50158 	 70.1379 	 
