34

S 	 -55.8359 	 24.6798 	 94.935 	 
C 	 -54.3237 	 23.7762 	 94.6505 	 
C 	 -53.4572 	 24.4087 	 93.7255 	 
C 	 -54.0242 	 25.6506 	 93.2806 	 
C 	 -55.3016 	 25.893 	 93.7701 	 
H 	 -53.4966 	 26.2018 	 92.5089 	 
C 	 -52.1397 	 23.8312 	 93.2196 	 
H 	 -52.2467 	 23.245 	 92.2867 	 
H 	 -51.7714 	 23.0145 	 93.8041 	 
C 	 -50.9796 	 24.795 	 93.1263 	 
H 	 -51.0702 	 25.4736 	 92.2037 	 
H 	 -50.8324 	 25.4463 	 94.0156 	 
C 	 -49.7143 	 24.0158 	 92.802 	 
H 	 -48.93 	 24.7464 	 92.6197 	 
H 	 -49.5194 	 23.3642 	 93.6649 	 
H 	 -49.7835 	 23.5094 	 91.8568 	 
S 	 -57.3593 	 26.8537 	 92.3093 	 
C 	 -57.6152 	 28.5908 	 92.208 	 
C 	 -56.6018 	 29.3226 	 92.819 	 
C 	 -55.6675 	 28.4788 	 93.4837 	 
C 	 -56.0184 	 27.1446 	 93.3672 	 
H 	 -56.6205 	 30.4164 	 92.806 	 
C 	 -54.5601 	 28.9897 	 94.3949 	 
H 	 -54.049 	 29.7916 	 93.7917 	 
H 	 -53.7691 	 28.2377 	 94.5211 	 
C 	 -54.8633 	 29.6439 	 95.7077 	 
H 	 -55.508 	 29.0565 	 96.3902 	 
H 	 -55.5855 	 30.4582 	 95.5051 	 
C 	 -53.5991 	 30.09 	 96.5205 	 
H 	 -53.4253 	 29.3055 	 97.2269 	 
H 	 -53.7328 	 30.981 	 97.1254 	 
H 	 -52.6571 	 30.306 	 96.0178 	 
H 	 -54.3153 	 22.7651 	 95.0309 	 
H 	 -58.4625 	 29.1029 	 91.7404 	 
