34

S 	 45.5688 	 8.15622 	 80.8864 	 
C 	 45.1291 	 7.66638 	 82.4697 	 
C 	 45.2186 	 8.72084 	 83.393 	 
C 	 45.59 	 9.86678 	 82.7107 	 
C 	 45.6675 	 9.81393 	 81.3102 	 
H 	 45.847 	 10.7309 	 83.1741 	 
C 	 44.955 	 8.70121 	 84.8226 	 
H 	 44.1014 	 8.03336 	 84.8655 	 
H 	 44.5562 	 9.63274 	 85.1789 	 
C 	 46.0899 	 8.32417 	 85.7636 	 
H 	 46.942 	 9.0319 	 85.4029 	 
H 	 45.7715 	 8.48328 	 86.8171 	 
C 	 46.7014 	 6.95817 	 85.546 	 
H 	 47.1603 	 6.62442 	 84.5709 	 
H 	 47.4058 	 6.71552 	 86.2881 	 
H 	 45.9605 	 6.30644 	 85.811 	 
S 	 46.7991 	 10.4974 	 78.9875 	 
C 	 46.6599 	 12.1137 	 78.4412 	 
C 	 46.2325 	 13.0121 	 79.3759 	 
C 	 45.788 	 12.3396 	 80.5792 	 
C 	 45.9707 	 10.9245 	 80.414 	 
H 	 46.2253 	 14.0621 	 79.1635 	 
C 	 45.1365 	 13.131 	 81.6584 	 
H 	 44.4147 	 12.4962 	 82.0965 	 
H 	 44.5119 	 13.8657 	 81.178 	 
C 	 46.0793 	 13.7768 	 82.6593 	 
H 	 46.6795 	 13.1338 	 83.2874 	 
H 	 45.3969 	 14.3263 	 83.3675 	 
C 	 47.1072 	 14.783 	 82.0281 	 
H 	 47.7878 	 15.3747 	 82.7104 	 
H 	 46.5519 	 15.4961 	 81.4693 	 
H 	 47.655 	 14.3003 	 81.2274 	 
H 	 44.7987 	 6.66216 	 82.8472 	 
H 	 46.983 	 12.469 	 77.4986 	 
