34

S 	 -34.2464 	 74.3074 	 162.493 	 
C 	 -33.0952 	 74.5721 	 161.268 	 
C 	 -33.6818 	 74.9239 	 160.037 	 
C 	 -35.0494 	 75.1719 	 160.18 	 
C 	 -35.5376 	 74.9216 	 161.454 	 
H 	 -35.7247 	 75.5792 	 159.407 	 
C 	 -32.97 	 75.1898 	 158.659 	 
H 	 -33.4086 	 76.0922 	 158.272 	 
H 	 -33.3071 	 74.3789 	 157.976 	 
C 	 -31.4079 	 75.2413 	 158.792 	 
H 	 -31.0576 	 75.8213 	 159.581 	 
H 	 -31.1505 	 74.1937 	 158.914 	 
C 	 -30.6995 	 75.5706 	 157.437 	 
H 	 -30.982 	 76.5344 	 156.951 	 
H 	 -29.5959 	 75.5867 	 157.505 	 
H 	 -30.8581 	 74.7894 	 156.695 	 
S 	 -36.9784 	 76.8161 	 162.863 	 
C 	 -38.6975 	 76.8687 	 162.532 	 
C 	 -39.191 	 75.8019 	 161.786 	 
C 	 -38.1045 	 74.9407 	 161.318 	 
C 	 -36.8733 	 75.2743 	 161.891 	 
H 	 -40.205 	 75.7547 	 161.623 	 
C 	 -38.3238 	 73.9493 	 160.205 	 
H 	 -37.37 	 73.5619 	 159.82 	 
H 	 -38.7687 	 74.5314 	 159.363 	 
C 	 -39.3039 	 72.8309 	 160.446 	 
H 	 -39.5692 	 72.5229 	 159.468 	 
H 	 -40.2536 	 73.1305 	 160.958 	 
C 	 -38.7054 	 71.6807 	 161.281 	 
H 	 -39.5235 	 70.9431 	 161.615 	 
H 	 -38.3188 	 72.0942 	 162.254 	 
H 	 -37.9616 	 71.1442 	 160.687 	 
H 	 -32.023 	 74.4934 	 161.373 	 
H 	 -39.4035 	 77.6184 	 162.919 	 
