34

S 	 11.4863 	 -10.621 	 92.6833 	 
C 	 11.4066 	 -9.2104 	 93.6394 	 
C 	 10.1624 	 -9.0361 	 94.139 	 
C 	 9.22317 	 -10.0302 	 93.814 	 
C 	 9.87911 	 -11.0363 	 93.1319 	 
H 	 8.15753 	 -9.99211 	 94.0068 	 
C 	 9.66535 	 -7.82538 	 94.9087 	 
H 	 8.73813 	 -7.4779 	 94.5847 	 
H 	 10.3519 	 -6.95131 	 94.6728 	 
C 	 9.65404 	 -8.05381 	 96.4917 	 
H 	 9.07044 	 -7.17709 	 96.8316 	 
H 	 9.07057 	 -8.94335 	 96.8509 	 
C 	 10.9378 	 -8.34136 	 97.2248 	 
H 	 11.6108 	 -7.51182 	 97.1207 	 
H 	 10.7556 	 -8.45125 	 98.274 	 
H 	 11.3916 	 -9.28062 	 96.9037 	 
S 	 9.1534 	 -12.6993 	 91.022 	 
C 	 7.95127 	 -13.9319 	 91.208 	 
C 	 7.65515 	 -14.0344 	 92.5508 	 
C 	 8.30202 	 -13.0858 	 93.4063 	 
C 	 9.18743 	 -12.3 	 92.6708 	 
H 	 7.02497 	 -14.8293 	 92.9036 	 
C 	 8.26671 	 -13.1004 	 94.9278 	 
H 	 9.25905 	 -12.7971 	 95.2508 	 
H 	 8.18586 	 -14.1252 	 95.182 	 
C 	 7.15184 	 -12.2716 	 95.5848 	 
H 	 6.16319 	 -12.4659 	 95.2442 	 
H 	 7.27048 	 -11.21 	 95.3345 	 
C 	 6.98497 	 -12.4939 	 97.0919 	 
H 	 6.31483 	 -11.6925 	 97.4898 	 
H 	 7.99974 	 -12.4888 	 97.4827 	 
H 	 6.60519 	 -13.4972 	 97.3208 	 
H 	 12.198 	 -8.39675 	 93.5701 	 
H 	 7.65602 	 -14.6642 	 90.4558 	 
