34

S 	 -36.9155 	 30.099 	 83.27 	 
C 	 -35.8548 	 29.9739 	 81.8882 	 
C 	 -36.5349 	 29.7917 	 80.6783 	 
C 	 -37.9143 	 29.9295 	 80.8521 	 
C 	 -38.2648 	 30.2008 	 82.1698 	 
H 	 -38.5368 	 29.864 	 79.9964 	 
C 	 -35.7686 	 29.5242 	 79.3508 	 
H 	 -34.672 	 29.6399 	 79.366 	 
H 	 -36.1313 	 30.3445 	 78.6387 	 
C 	 -36.0649 	 28.2686 	 78.7008 	 
H 	 -35.6908 	 27.5896 	 79.41 	 
H 	 -37.1835 	 28.2109 	 78.7156 	 
C 	 -35.4587 	 28.0589 	 77.3364 	 
H 	 -34.3837 	 28.0684 	 77.3137 	 
H 	 -35.7516 	 27.0484 	 77.0397 	 
H 	 -35.7948 	 28.8108 	 76.6185 	 
S 	 -39.9394 	 32.0471 	 83.4332 	 
C 	 -41.6284 	 31.5421 	 83.6445 	 
C 	 -41.8756 	 30.37 	 83.0178 	 
C 	 -40.7843 	 29.7118 	 82.4382 	 
C 	 -39.6509 	 30.4348 	 82.6664 	 
H 	 -42.876 	 30.0466 	 82.9248 	 
C 	 -40.9225 	 28.4135 	 81.7115 	 
H 	 -41.4564 	 27.8109 	 82.3969 	 
H 	 -40.0627 	 27.7442 	 81.7097 	 
C 	 -41.487 	 28.6948 	 80.339 	 
H 	 -40.8911 	 29.4447 	 79.7323 	 
H 	 -42.4969 	 29.1826 	 80.4226 	 
C 	 -41.4784 	 27.5534 	 79.373 	 
H 	 -41.8713 	 27.7365 	 78.4211 	 
H 	 -41.8475 	 26.5941 	 79.7888 	 
H 	 -40.4352 	 27.3726 	 79.1362 	 
H 	 -34.8113 	 29.645 	 82.0119 	 
H 	 -42.4674 	 32.0794 	 84.17 	 
