34

S 	 67.6977 	 21.0762 	 73.2255 	 
C 	 66.3832 	 22.1764 	 73.1044 	 
C 	 65.5484 	 22.0658 	 74.2105 	 
C 	 66.0839 	 21.1432 	 75.1714 	 
C 	 67.1909 	 20.5 	 74.7453 	 
H 	 65.7302 	 21.0351 	 76.1175 	 
C 	 64.3645 	 22.9222 	 74.5472 	 
H 	 63.7513 	 23.0289 	 73.6367 	 
H 	 64.7279 	 23.8986 	 74.9964 	 
C 	 63.3356 	 22.4545 	 75.675 	 
H 	 63.8782 	 22.2798 	 76.621 	 
H 	 62.6579 	 23.254 	 75.954 	 
C 	 62.5593 	 21.129 	 75.3492 	 
H 	 61.9582 	 21.3521 	 74.4287 	 
H 	 63.1344 	 20.2925 	 74.9221 	 
H 	 61.8992 	 20.852 	 76.1158 	 
S 	 69.4491 	 18.9706 	 74.6188 	 
C 	 69.7487 	 17.7053 	 75.7098 	 
C 	 68.622 	 17.4616 	 76.4782 	 
C 	 67.6858 	 18.5806 	 76.4593 	 
C 	 67.9223 	 19.4503 	 75.4093 	 
H 	 68.5866 	 16.4837 	 77.0091 	 
C 	 66.3214 	 18.3243 	 77.1045 	 
H 	 65.6069 	 18.9986 	 76.7273 	 
H 	 66.4946 	 18.8378 	 78.007 	 
C 	 65.7484 	 16.8872 	 77.3257 	 
H 	 64.9634 	 16.9211 	 78.1445 	 
H 	 66.5271 	 16.2194 	 77.7379 	 
C 	 65.1046 	 16.3326 	 76.0077 	 
H 	 64.5707 	 17.0627 	 75.3683 	 
H 	 64.356 	 15.5561 	 76.2909 	 
H 	 65.86 	 15.8597 	 75.345 	 
H 	 66.4231 	 22.936 	 72.3598 	 
H 	 70.6586 	 17.0939 	 75.7204 	 
