34

S 	 -30.8866 	 64.6209 	 107.052 	 
C 	 -30.8842 	 66.2526 	 107.443 	 
C 	 -31.7574 	 67.004 	 106.65 	 
C 	 -32.2706 	 66.1592 	 105.579 	 
C 	 -31.8815 	 64.7925 	 105.612 	 
H 	 -32.9403 	 66.498 	 104.807 	 
C 	 -32.0473 	 68.4831 	 106.714 	 
H 	 -32.0248 	 68.8576 	 107.736 	 
H 	 -33.1113 	 68.5787 	 106.565 	 
C 	 -31.1896 	 69.3795 	 105.773 	 
H 	 -31.3368 	 69.0562 	 104.751 	 
H 	 -31.5522 	 70.4376 	 105.725 	 
C 	 -29.745 	 69.5184 	 106.116 	 
H 	 -29.3266 	 68.4807 	 106.137 	 
H 	 -29.3178 	 70.1114 	 105.308 	 
H 	 -29.5475 	 69.9754 	 107.105 	 
S 	 -34.0975 	 63.4676 	 104.379 	 
C 	 -33.8146 	 62.1928 	 103.176 	 
C 	 -32.4648 	 61.9284 	 103.15 	 
C 	 -31.6764 	 62.8246 	 103.97 	 
C 	 -32.3972 	 63.722 	 104.779 	 
H 	 -32.089 	 61.2078 	 102.423 	 
C 	 -30.1573 	 62.9506 	 103.78 	 
H 	 -29.7127 	 62.9197 	 104.733 	 
H 	 -29.8879 	 63.9717 	 103.531 	 
C 	 -29.4099 	 61.9046 	 102.928 	 
H 	 -29.8676 	 62.1004 	 101.934 	 
H 	 -29.5109 	 60.8701 	 103.163 	 
C 	 -27.8597 	 62.0252 	 102.905 	 
H 	 -27.5232 	 61.944 	 103.938 	 
H 	 -27.5138 	 62.9137 	 102.439 	 
H 	 -27.3385 	 61.2531 	 102.395 	 
H 	 -30.2868 	 66.7096 	 108.301 	 
H 	 -34.5845 	 61.6883 	 102.596 	 
