34

S 	 -102.179 	 56.4966 	 121.043 	 
C 	 -100.858 	 57.7105 	 120.948 	 
C 	 -101.441 	 58.9153 	 121.075 	 
C 	 -102.9 	 58.8626 	 120.908 	 
C 	 -103.434 	 57.6077 	 120.862 	 
H 	 -103.48 	 59.7322 	 120.848 	 
C 	 -100.648 	 60.175 	 121.086 	 
H 	 -99.6964 	 60.0868 	 121.65 	 
H 	 -101.157 	 60.788 	 121.891 	 
C 	 -100.387 	 60.8134 	 119.693 	 
H 	 -101.34 	 61.0896 	 119.223 	 
H 	 -99.811 	 61.7039 	 119.95 	 
C 	 -99.6437 	 59.9128 	 118.687 	 
H 	 -99.4553 	 60.6081 	 117.824 	 
H 	 -98.7623 	 59.4188 	 119.173 	 
H 	 -100.184 	 59.0612 	 118.258 	 
S 	 -105.558 	 57.0355 	 119.194 	 
C 	 -107.157 	 56.8599 	 119.786 	 
C 	 -107.196 	 57.0837 	 121.102 	 
C 	 -105.953 	 57.4094 	 121.681 	 
C 	 -104.861 	 57.2856 	 120.803 	 
H 	 -108.117 	 57.0912 	 121.708 	 
C 	 -105.713 	 57.768 	 123.111 	 
H 	 -104.666 	 57.5526 	 123.388 	 
H 	 -106.436 	 57.249 	 123.779 	 
C 	 -106.02 	 59.2238 	 123.598 	 
H 	 -106.978 	 59.6337 	 123.41 	 
H 	 -105.367 	 59.8573 	 123.103 	 
C 	 -105.639 	 59.2976 	 125.07 	 
H 	 -106.12 	 58.5046 	 125.626 	 
H 	 -106.047 	 60.1803 	 125.569 	 
H 	 -104.587 	 59.2741 	 125.316 	 
H 	 -99.7878 	 57.4873 	 121.073 	 
H 	 -107.981 	 56.5855 	 119.127 	 
