34

S 	 -10.8385 	 50.6972 	 29.8291 	 
C 	 -9.82713 	 49.6261 	 28.9702 	 
C 	 -8.56376 	 49.5658 	 29.4608 	 
C 	 -8.4282 	 50.4468 	 30.6212 	 
C 	 -9.63405 	 50.9596 	 31.0836 	 
H 	 -7.55349 	 50.5961 	 31.1709 	 
C 	 -7.38538 	 48.8468 	 28.8539 	 
H 	 -7.7563 	 48.185 	 28.1647 	 
H 	 -6.9488 	 48.1048 	 29.5284 	 
C 	 -6.10535 	 49.6396 	 28.2898 	 
H 	 -6.44903 	 50.4905 	 27.7123 	 
H 	 -5.55628 	 50.1024 	 29.1598 	 
C 	 -5.1482 	 48.9421 	 27.4488 	 
H 	 -4.33926 	 49.5878 	 27.0426 	 
H 	 -4.66053 	 48.1168 	 28.0076 	 
H 	 -5.54898 	 48.5403 	 26.6422 	 
S 	 -10.0282 	 53.5463 	 31.783 	 
C 	 -9.68626 	 53.9365 	 33.4817 	 
C 	 -9.52978 	 52.7971 	 34.2159 	 
C 	 -9.51964 	 51.5654 	 33.494 	 
C 	 -9.83029 	 51.8539 	 32.1761 	 
H 	 -9.41498 	 53.0855 	 35.2897 	 
C 	 -9.39022 	 50.2255 	 34.1806 	 
H 	 -8.83785 	 50.3358 	 35.1344 	 
H 	 -8.82337 	 49.6243 	 33.4507 	 
C 	 -10.7116 	 49.4618 	 34.452 	 
H 	 -10.6172 	 48.4516 	 34.8999 	 
H 	 -11.1644 	 49.2821 	 33.4085 	 
C 	 -11.6675 	 50.2777 	 35.3185 	 
H 	 -12.5953 	 49.7526 	 35.5423 	 
H 	 -12.1181 	 51.1252 	 34.9177 	 
H 	 -11.2398 	 50.4408 	 36.2876 	 
H 	 -9.99989 	 49.0828 	 28.094 	 
H 	 -9.60449 	 54.9843 	 33.8944 	 
