34

S 	 15.1478 	 24.6917 	 66.3465 	 
C 	 15.3801 	 25.6109 	 64.8738 	 
C 	 14.1664 	 25.9299 	 64.3621 	 
C 	 13.1307 	 25.3232 	 65.1193 	 
C 	 13.4538 	 25.0278 	 66.4214 	 
H 	 12.0729 	 25.3911 	 64.8877 	 
C 	 13.9114 	 26.7128 	 63.0499 	 
H 	 13.6035 	 25.9917 	 62.2624 	 
H 	 14.8433 	 27.0923 	 62.7677 	 
C 	 12.9464 	 27.9109 	 63.0595 	 
H 	 12.9948 	 28.4672 	 62.1346 	 
H 	 11.9165 	 27.4312 	 63.0267 	 
C 	 13.0897 	 28.826 	 64.3176 	 
H 	 12.4409 	 29.7201 	 64.3586 	 
H 	 13.1593 	 28.262 	 65.2828 	 
H 	 14.001 	 29.3565 	 64.4607 	 
S 	 11.1753 	 23.653 	 67.0103 	 
C 	 10.6332 	 23.4866 	 68.7311 	 
C 	 11.3474 	 24.2724 	 69.5527 	 
C 	 12.5128 	 24.8113 	 68.9088 	 
C 	 12.505 	 24.6309 	 67.4953 	 
H 	 10.971 	 24.3997 	 70.6346 	 
C 	 13.4821 	 25.6488 	 69.6328 	 
H 	 14.4375 	 25.6007 	 69.2593 	 
H 	 13.454 	 25.1692 	 70.6249 	 
C 	 13.0539 	 27.0728 	 69.7494 	 
H 	 13.5574 	 27.5414 	 70.5563 	 
H 	 12.005 	 27.1804 	 70.0706 	 
C 	 13.4264 	 27.8599 	 68.4727 	 
H 	 14.316 	 27.4562 	 67.9935 	 
H 	 13.5954 	 28.927 	 68.6221 	 
H 	 12.6277 	 27.6477 	 67.6764 	 
H 	 16.3382 	 25.9812 	 64.5075 	 
H 	 9.86922 	 22.8218 	 69.0281 	 
