34

S 	 65.4574 	 -4.38669 	 88.7276 	 
C 	 64.4045 	 -3.93933 	 90.0554 	 
C 	 64.9039 	 -2.87261 	 90.7465 	 
C 	 66.2599 	 -2.57785 	 90.3285 	 
C 	 66.7269 	 -3.39415 	 89.3769 	 
H 	 66.85 	 -1.818 	 90.8195 	 
C 	 64.3319 	 -2.14244 	 91.968 	 
H 	 65.1844 	 -1.67232 	 92.5627 	 
H 	 63.8742 	 -2.80703 	 92.6447 	 
C 	 63.2372 	 -1.04422 	 91.6778 	 
H 	 63.5637 	 -0.366078 	 90.9324 	 
H 	 62.4697 	 -1.5898 	 91.165 	 
C 	 62.6111 	 -0.201442 	 92.7935 	 
H 	 61.7446 	 0.383706 	 92.4337 	 
H 	 62.2135 	 -0.780046 	 93.6017 	 
H 	 63.3884 	 0.313308 	 93.2788 	 
S 	 68.6931 	 -5.04101 	 88.5537 	 
C 	 70.2321 	 -4.45192 	 88.1263 	 
C 	 70.3972 	 -3.11535 	 88.3163 	 
C 	 69.1395 	 -2.467 	 88.6647 	 
C 	 68.1101 	 -3.42354 	 88.8089 	 
H 	 71.356 	 -2.6526 	 88.0321 	 
C 	 69.0537 	 -0.933677 	 88.8109 	 
H 	 68.1327 	 -0.55389 	 89.4034 	 
H 	 69.0287 	 -0.447958 	 87.7881 	 
C 	 70.3243 	 -0.252166 	 89.4398 	 
H 	 71.2619 	 -0.680546 	 88.9922 	 
H 	 70.3815 	 -0.403747 	 90.4908 	 
C 	 70.2695 	 1.27158 	 89.2645 	 
H 	 69.2959 	 1.67519 	 89.6603 	 
H 	 70.3324 	 1.52266 	 88.1615 	 
H 	 71.0843 	 1.76462 	 89.803 	 
H 	 63.4205 	 -4.37966 	 90.1471 	 
H 	 71.0275 	 -5.13333 	 87.8449 	 
