34

S 	 7.19496 	 -19.7324 	 85.9765 	 
C 	 5.85807 	 -19.0241 	 85.11 	 
C 	 5.94579 	 -19.3272 	 83.7484 	 
C 	 7.14844 	 -20.001 	 83.4376 	 
C 	 7.91508 	 -20.3045 	 84.5451 	 
H 	 7.44066 	 -20.4347 	 82.5037 	 
C 	 5.03901 	 -18.8011 	 82.6664 	 
H 	 5.57286 	 -18.0445 	 82.0972 	 
H 	 4.26384 	 -18.2977 	 83.2427 	 
C 	 4.45058 	 -19.8878 	 81.7397 	 
H 	 5.32656 	 -20.1525 	 81.1912 	 
H 	 4.22095 	 -20.8345 	 82.2545 	 
C 	 3.24662 	 -19.3365 	 80.9656 	 
H 	 3.06511 	 -20.1292 	 80.2249 	 
H 	 2.35924 	 -18.928 	 81.4706 	 
H 	 3.56932 	 -18.4448 	 80.3986 	 
S 	 9.38057 	 -22.7834 	 84.3329 	 
C 	 11.0751 	 -22.7458 	 84.6604 	 
C 	 11.5516 	 -21.436 	 84.6555 	 
C 	 10.5059 	 -20.498 	 84.63 	 
C 	 9.1759 	 -21.0139 	 84.6068 	 
H 	 12.617 	 -21.2738 	 84.707 	 
C 	 10.8935 	 -19.034 	 84.5069 	 
H 	 9.98594 	 -18.3932 	 84.3735 	 
H 	 11.4405 	 -18.908 	 83.5825 	 
C 	 11.711 	 -18.5787 	 85.7451 	 
H 	 12.6355 	 -19.095 	 85.7581 	 
H 	 11.1987 	 -18.7782 	 86.7012 	 
C 	 12.134 	 -17.1173 	 85.7101 	 
H 	 12.3394 	 -16.6965 	 84.6965 	 
H 	 12.8766 	 -16.7644 	 86.4183 	 
H 	 11.1999 	 -16.5896 	 85.9152 	 
H 	 5.05204 	 -18.4573 	 85.6212 	 
H 	 11.7082 	 -23.5613 	 84.811 	 
