34

S 	 -41.1384 	 67.7636 	 144.407 	 
C 	 -41.0308 	 66.8177 	 142.906 	 
C 	 -39.8246 	 66.0667 	 142.954 	 
C 	 -39.1109 	 66.1303 	 144.188 	 
C 	 -39.7598 	 66.9248 	 145.123 	 
H 	 -38.1758 	 65.5833 	 144.328 	 
C 	 -39.3296 	 65.1329 	 141.767 	 
H 	 -38.5273 	 65.5724 	 141.072 	 
H 	 -40.2917 	 65.1346 	 141.251 	 
C 	 -38.9847 	 63.6457 	 142.174 	 
H 	 -39.8023 	 63.3409 	 142.842 	 
H 	 -39.0305 	 63.1248 	 141.303 	 
C 	 -37.569 	 63.5514 	 142.69 	 
H 	 -37.0098 	 64.4659 	 142.551 	 
H 	 -37.4958 	 63.2082 	 143.768 	 
H 	 -37.0873 	 62.7403 	 142.098 	 
S 	 -40.5309 	 67.5063 	 147.759 	 
C 	 -39.4074 	 67.5593 	 149.056 	 
C 	 -38.1526 	 67.2858 	 148.599 	 
C 	 -38.1095 	 67.013 	 147.173 	 
C 	 -39.3318 	 67.1072 	 146.532 	 
H 	 -37.3604 	 67.3147 	 149.36 	 
C 	 -36.7616 	 66.656 	 146.686 	 
H 	 -36.9611 	 65.9397 	 145.89 	 
H 	 -36.1604 	 66.1314 	 147.389 	 
C 	 -36.064 	 67.8007 	 145.993 	 
H 	 -35.7358 	 68.525 	 146.771 	 
H 	 -36.79 	 68.2557 	 145.274 	 
C 	 -34.9028 	 67.5193 	 145.01 	 
H 	 -34.3835 	 68.4307 	 144.728 	 
H 	 -35.2284 	 67.0297 	 144.096 	 
H 	 -34.2505 	 66.7785 	 145.426 	 
H 	 -41.5129 	 66.9742 	 141.93 	 
H 	 -39.563 	 67.7794 	 150.09 	 
