34

S 	 -55.7192 	 36.5754 	 114.687 	 
C 	 -54.1447 	 35.8416 	 114.426 	 
C 	 -53.2484 	 36.7462 	 113.92 	 
C 	 -53.8244 	 38.0776 	 113.929 	 
C 	 -55.149 	 38.223 	 114.434 	 
H 	 -53.3458 	 39.027 	 113.597 	 
C 	 -51.768 	 36.491 	 113.534 	 
H 	 -51.7707 	 36.3126 	 112.475 	 
H 	 -51.363 	 35.5596 	 113.976 	 
C 	 -50.7229 	 37.4268 	 113.785 	 
H 	 -49.7749 	 36.9785 	 113.482 	 
H 	 -50.7883 	 38.2946 	 113.202 	 
C 	 -50.6637 	 37.8834 	 115.224 	 
H 	 -51.6752 	 38.2894 	 115.574 	 
H 	 -50.4974 	 37.1001 	 115.967 	 
H 	 -49.9964 	 38.7985 	 115.295 	 
S 	 -57.7222 	 39.1709 	 114.168 	 
C 	 -57.9803 	 40.9113 	 114.044 	 
C 	 -56.8967 	 41.5298 	 114.496 	 
C 	 -55.7319 	 40.7016 	 114.654 	 
C 	 -56.0103 	 39.3914 	 114.528 	 
H 	 -56.8397 	 42.6164 	 114.479 	 
C 	 -54.3739 	 41.265 	 115.018 	 
H 	 -54.2929 	 42.2447 	 114.688 	 
H 	 -53.6162 	 40.7912 	 114.462 	 
C 	 -53.9488 	 41.2093 	 116.495 	 
H 	 -54.0733 	 40.2195 	 116.845 	 
H 	 -54.7344 	 41.7352 	 117.039 	 
C 	 -52.5542 	 41.6447 	 116.752 	 
H 	 -52.4839 	 41.5126 	 117.826 	 
H 	 -52.5069 	 42.7741 	 116.663 	 
H 	 -51.7738 	 41.1418 	 116.26 	 
H 	 -54.1343 	 34.7446 	 114.727 	 
H 	 -58.9197 	 41.3525 	 113.569 	 
