34

S 	 53.5457 	 18.1363 	 49.833 	 
C 	 55.2205 	 18.6978 	 49.8794 	 
C 	 55.2763 	 19.8082 	 50.7355 	 
C 	 54.0804 	 20.0798 	 51.4426 	 
C 	 53.1323 	 19.1127 	 51.2278 	 
H 	 53.8531 	 20.8937 	 52.0109 	 
C 	 56.375 	 20.8214 	 50.8741 	 
H 	 56.7196 	 20.921 	 49.8867 	 
H 	 57.0879 	 20.2793 	 51.5252 	 
C 	 56.074 	 22.2748 	 51.369 	 
H 	 55.5852 	 22.1822 	 52.3816 	 
H 	 56.9652 	 22.8559 	 51.5055 	 
C 	 55.1305 	 22.9954 	 50.4461 	 
H 	 55.6859 	 23.2114 	 49.471 	 
H 	 54.2602 	 22.3556 	 50.2105 	 
H 	 54.8356 	 23.9661 	 50.8288 	 
S 	 50.4286 	 18.7589 	 50.6196 	 
C 	 49.2656 	 18.7106 	 51.9198 	 
C 	 49.8578 	 18.794 	 53.1527 	 
C 	 51.2676 	 19.1736 	 53.0839 	 
C 	 51.8019 	 19.0381 	 51.8137 	 
H 	 49.3176 	 18.7087 	 54.086 	 
C 	 51.9633 	 19.6552 	 54.2931 	 
H 	 51.5946 	 20.6181 	 54.6572 	 
H 	 52.9786 	 19.8848 	 53.8754 	 
C 	 52.0609 	 18.7085 	 55.504 	 
H 	 52.7869 	 17.9356 	 55.3232 	 
H 	 51.0851 	 18.2941 	 55.7439 	 
C 	 52.7332 	 19.4851 	 56.6886 	 
H 	 52.8183 	 18.7727 	 57.4872 	 
H 	 52.1284 	 20.3184 	 57.0147 	 
H 	 53.7151 	 19.9273 	 56.5864 	 
H 	 55.99 	 18.4285 	 49.1908 	 
H 	 48.2558 	 18.3452 	 51.7926 	 
