34

S 	 -44.727 	 25.0727 	 83.5121 	 
C 	 -46.137 	 25.4175 	 82.4382 	 
C 	 -45.7361 	 25.8072 	 81.1419 	 
C 	 -44.318 	 25.7893 	 81.0461 	 
C 	 -43.5505 	 25.4303 	 82.1488 	 
H 	 -43.7378 	 26.0904 	 80.1791 	 
C 	 -46.7214 	 26.179 	 80.0211 	 
H 	 -46.9271 	 27.2039 	 80.032 	 
H 	 -47.7543 	 25.8805 	 80.3152 	 
C 	 -46.3962 	 25.8213 	 78.5749 	 
H 	 -47.2808 	 25.9839 	 77.9277 	 
H 	 -45.4806 	 26.401 	 78.1365 	 
C 	 -46.1856 	 24.3548 	 78.354 	 
H 	 -45.2513 	 23.884 	 78.7602 	 
H 	 -47.053 	 23.7779 	 78.7671 	 
H 	 -46.189 	 24.1436 	 77.2727 	 
S 	 -41.4159 	 23.8245 	 81.578 	 
C 	 -39.8082 	 24.4316 	 82.0454 	 
C 	 -39.9038 	 25.4456 	 82.9737 	 
C 	 -41.2262 	 25.8887 	 83.1549 	 
C 	 -42.1372 	 25.3479 	 82.2369 	 
H 	 -38.9896 	 25.6381 	 83.5213 	 
C 	 -41.4729 	 26.9939 	 84.1586 	 
H 	 -41.1734 	 26.5386 	 85.1278 	 
H 	 -42.5491 	 27.3133 	 84.2284 	 
C 	 -40.7718 	 28.368 	 84.0417 	 
H 	 -39.7047 	 28.1339 	 84.0032 	 
H 	 -40.8181 	 29.0649 	 84.8993 	 
C 	 -41.194 	 29.2101 	 82.7909 	 
H 	 -41.0733 	 28.7479 	 81.8235 	 
H 	 -40.7219 	 30.2098 	 82.7397 	 
H 	 -42.2847 	 29.4557 	 82.8506 	 
H 	 -47.2219 	 25.4425 	 82.7847 	 
H 	 -38.9132 	 23.7945 	 81.954 	 
