34

S 	 1.82494 	 -3.47096 	 79.9819 	 
C 	 0.482688 	 -4.30334 	 79.26 	 
C 	 -0.758237 	 -3.65157 	 79.5368 	 
C 	 -0.558829 	 -2.4371 	 80.2098 	 
C 	 0.807786 	 -2.13495 	 80.3773 	 
H 	 -1.37881 	 -1.82518 	 80.5484 	 
C 	 -2.13497 	 -4.31563 	 79.2536 	 
H 	 -2.24515 	 -5.08674 	 80.0975 	 
H 	 -2.06342 	 -4.84635 	 78.317 	 
C 	 -3.42905 	 -3.46868 	 79.3559 	 
H 	 -4.31959 	 -4.0878 	 79.5199 	 
H 	 -3.31876 	 -2.83969 	 80.2767 	 
C 	 -3.72297 	 -2.66292 	 78.0576 	 
H 	 -3.72029 	 -3.2944 	 77.1468 	 
H 	 -4.66377 	 -2.12613 	 78.0606 	 
H 	 -3.04912 	 -1.85795 	 77.9797 	 
S 	 1.56594 	 -1.17817 	 82.7554 	 
C 	 2.10267 	 0.504033 	 82.8745 	 
C 	 1.82414 	 1.25594 	 81.7807 	 
C 	 1.36469 	 0.462175 	 80.7046 	 
C 	 1.34174 	 -0.896133 	 81.0409 	 
H 	 2.10231 	 2.24782 	 81.8103 	 
C 	 1.047 	 1.00648 	 79.366 	 
H 	 0.229276 	 0.422379 	 78.9765 	 
H 	 1.79977 	 0.712368 	 78.6096 	 
C 	 0.629002 	 2.4911 	 79.4044 	 
H 	 0.40791 	 2.84535 	 78.3701 	 
H 	 1.46195 	 3.13139 	 79.5139 	 
C 	 -0.54072 	 2.8341 	 80.2782 	 
H 	 -1.46863 	 3.03421 	 79.7375 	 
H 	 -0.25427 	 3.8062 	 80.6361 	 
H 	 -0.613234 	 2.18302 	 81.1435 	 
H 	 0.423013 	 -5.26732 	 78.7771 	 
H 	 2.46595 	 0.932301 	 83.7873 	 
