34

S 	 13.2104 	 -7.91788 	 63.8559 	 
C 	 12.8459 	 -7.17171 	 62.3267 	 
C 	 13.5395 	 -6.02097 	 62.0483 	 
C 	 14.4439 	 -5.74316 	 63.162 	 
C 	 14.3448 	 -6.64012 	 64.1494 	 
H 	 15.1677 	 -4.92255 	 63.1856 	 
C 	 13.3944 	 -5.10427 	 60.8099 	 
H 	 13.3663 	 -5.80438 	 60.0152 	 
H 	 14.2862 	 -4.44257 	 60.5035 	 
C 	 12.0301 	 -4.38241 	 60.8493 	 
H 	 11.2933 	 -5.0712 	 61.2691 	 
H 	 12.1039 	 -3.60385 	 61.6586 	 
C 	 11.6294 	 -3.69722 	 59.5041 	 
H 	 10.7373 	 -2.99954 	 59.6997 	 
H 	 12.3868 	 -3.0137 	 59.1574 	 
H 	 11.4424 	 -4.39309 	 58.7357 	 
S 	 15.86 	 -8.06125 	 65.942 	 
C 	 16.3894 	 -7.23879 	 67.4208 	 
C 	 15.7778 	 -6.02584 	 67.5905 	 
C 	 15.0853 	 -5.66107 	 66.3981 	 
C 	 15.0706 	 -6.6152 	 65.4352 	 
H 	 15.976 	 -5.44174 	 68.4708 	 
C 	 14.3536 	 -4.30661 	 66.3416 	 
H 	 14.4022 	 -4.02009 	 65.3177 	 
H 	 14.8829 	 -3.54178 	 66.987 	 
C 	 12.8663 	 -4.23828 	 66.6709 	 
H 	 12.6241 	 -3.20807 	 67.0798 	 
H 	 12.8943 	 -4.90487 	 67.5766 	 
C 	 11.8318 	 -4.82261 	 65.6465 	 
H 	 10.8731 	 -4.51971 	 65.9864 	 
H 	 11.9053 	 -5.90039 	 65.4473 	 
H 	 11.8733 	 -4.32385 	 64.6755 	 
H 	 12.0873 	 -7.62736 	 61.6726 	 
H 	 17.0616 	 -7.73062 	 68.0986 	 
