34

S 	 -3.2756 	 9.01459 	 83.2484 	 
C 	 -3.35776 	 7.56286 	 84.1613 	 
C 	 -4.47446 	 6.77019 	 83.7126 	 
C 	 -4.98463 	 7.32162 	 82.4741 	 
C 	 -4.39578 	 8.46092 	 82.0399 	 
H 	 -5.66647 	 6.94195 	 81.7185 	 
C 	 -4.84125 	 5.40412 	 84.2059 	 
H 	 -5.83935 	 5.24696 	 83.8212 	 
H 	 -4.99806 	 5.45911 	 85.2903 	 
C 	 -3.86137 	 4.27514 	 83.7263 	 
H 	 -3.5088 	 4.55413 	 82.6936 	 
H 	 -2.98181 	 4.24621 	 84.3625 	 
C 	 -4.50581 	 2.94086 	 83.5119 	 
H 	 -5.23784 	 3.03753 	 82.7591 	 
H 	 -3.82033 	 2.24051 	 83.2012 	 
H 	 -5.04629 	 2.56112 	 84.4232 	 
S 	 -5.3208 	 10.8193 	 80.9494 	 
C 	 -5.42481 	 10.9243 	 79.2147 	 
C 	 -4.79686 	 9.84822 	 78.6066 	 
C 	 -4.26328 	 8.82554 	 79.4893 	 
C 	 -4.63794 	 9.16642 	 80.7875 	 
H 	 -4.76731 	 9.78963 	 77.5657 	 
C 	 -3.72614 	 7.49346 	 79.0386 	 
H 	 -3.96649 	 7.43598 	 77.9275 	 
H 	 -4.14568 	 6.68316 	 79.6767 	 
C 	 -2.178 	 7.30241 	 79.2501 	 
H 	 -1.97756 	 7.3768 	 80.351 	 
H 	 -1.54269 	 8.08841 	 78.7226 	 
C 	 -1.62646 	 5.94114 	 78.7751 	 
H 	 -0.620288 	 5.79163 	 79.0143 	 
H 	 -1.67867 	 5.90225 	 77.6583 	 
H 	 -2.12683 	 5.11979 	 79.2096 	 
H 	 -2.83896 	 7.24898 	 85.0541 	 
H 	 -6.08526 	 11.5893 	 78.7334 	 
