34

S 	 -43.5542 	 34.6215 	 81.0465 	 
C 	 -43.3419 	 36.0951 	 80.1298 	 
C 	 -42.7591 	 35.8275 	 78.9191 	 
C 	 -42.4587 	 34.4144 	 78.7315 	 
C 	 -42.7651 	 33.6202 	 79.8477 	 
H 	 -42.0856 	 33.9287 	 77.8637 	 
C 	 -42.6619 	 36.8977 	 77.7768 	 
H 	 -41.7714 	 36.6641 	 77.1419 	 
H 	 -42.4765 	 37.7948 	 78.3513 	 
C 	 -43.8681 	 36.9173 	 76.781 	 
H 	 -43.6995 	 36.0034 	 76.2026 	 
H 	 -44.7143 	 36.8724 	 77.4027 	 
C 	 -44.1039 	 38.1472 	 75.8383 	 
H 	 -45.0742 	 38.2525 	 75.2898 	 
H 	 -44.057 	 39.077 	 76.426 	 
H 	 -43.2577 	 38.2729 	 75.1393 	 
S 	 -44.1894 	 31.1969 	 79.847 	 
C 	 -43.3 	 29.7074 	 79.6707 	 
C 	 -41.9926 	 29.9868 	 79.4383 	 
C 	 -41.5944 	 31.3506 	 79.5053 	 
C 	 -42.6768 	 32.146 	 79.8214 	 
H 	 -41.3476 	 29.1314 	 79.2395 	 
C 	 -40.1538 	 31.6936 	 79.2195 	 
H 	 -40.1509 	 32.5221 	 78.4788 	 
H 	 -39.6401 	 30.8523 	 78.7392 	 
C 	 -39.2979 	 31.9319 	 80.4721 	 
H 	 -39.4414 	 31.0943 	 81.2281 	 
H 	 -39.5888 	 32.8662 	 80.9479 	 
C 	 -37.7928 	 32.0881 	 80.2017 	 
H 	 -37.3015 	 32.4119 	 81.1447 	 
H 	 -37.518 	 32.9063 	 79.4476 	 
H 	 -37.3807 	 31.2204 	 79.7497 	 
H 	 -43.7023 	 37.0514 	 80.3801 	 
H 	 -43.6555 	 28.7212 	 79.633 	 
