34

S 	 16.4117 	 9.33708 	 89.7956 	 
C 	 17.4161 	 7.95046 	 89.4335 	 
C 	 16.6835 	 7.02552 	 88.7005 	 
C 	 15.3461 	 7.5044 	 88.3942 	 
C 	 15.0071 	 8.77513 	 88.8763 	 
H 	 14.7313 	 6.85893 	 87.7695 	 
C 	 17.152 	 5.64203 	 88.2897 	 
H 	 16.2744 	 4.97701 	 87.956 	 
H 	 17.5143 	 5.17896 	 89.1897 	 
C 	 18.1754 	 5.64361 	 87.1401 	 
H 	 17.7037 	 5.97501 	 86.2483 	 
H 	 18.9669 	 6.31033 	 87.4074 	 
C 	 18.671 	 4.19401 	 86.8508 	 
H 	 17.8563 	 3.57762 	 86.3926 	 
H 	 19.5333 	 4.27654 	 86.1049 	 
H 	 18.9296 	 3.72318 	 87.7169 	 
S 	 14.3034 	 11.3446 	 88.409 	 
C 	 12.6539 	 11.7532 	 88.0137 	 
C 	 11.8533 	 10.598 	 87.85 	 
C 	 12.6204 	 9.38025 	 88.102 	 
C 	 13.9175 	 9.65189 	 88.5722 	 
H 	 10.8446 	 10.7154 	 87.6149 	 
C 	 12.0683 	 8.04693 	 87.9511 	 
H 	 12.6724 	 7.56105 	 87.2171 	 
H 	 11.0577 	 8.20211 	 87.561 	 
C 	 11.953 	 7.11346 	 89.1516 	 
H 	 11.5697 	 7.70335 	 89.9985 	 
H 	 13.0268 	 6.67506 	 89.3649 	 
C 	 11.0594 	 5.87596 	 88.8239 	 
H 	 11.2192 	 5.63582 	 87.7366 	 
H 	 10.0647 	 6.17668 	 88.9253 	 
H 	 11.3198 	 5.01404 	 89.4598 	 
H 	 18.4834 	 7.87974 	 89.6962 	 
H 	 12.307 	 12.7549 	 87.932 	 
