34

S 	 48.6015 	 29.314 	 45.3176 	 
C 	 49.5327 	 30.3436 	 44.198 	 
C 	 50.7569 	 29.7227 	 43.9371 	 
C 	 50.8904 	 28.4122 	 44.6016 	 
C 	 49.8291 	 28.0555 	 45.4187 	 
H 	 51.7153 	 27.8372 	 44.4573 	 
C 	 51.9691 	 30.3792 	 43.227 	 
H 	 51.5344 	 30.9741 	 42.4249 	 
H 	 52.5232 	 29.5518 	 42.8347 	 
C 	 52.8728 	 31.1266 	 44.2572 	 
H 	 52.1755 	 31.833 	 44.8292 	 
H 	 53.1981 	 30.4004 	 45.0899 	 
C 	 54.0477 	 31.8339 	 43.5873 	 
H 	 54.5152 	 31.2366 	 42.8924 	 
H 	 53.7766 	 32.8805 	 43.2289 	 
H 	 54.9025 	 31.9397 	 44.3419 	 
S 	 48.2316 	 26.7788 	 47.2783 	 
C 	 48.7438 	 25.2093 	 47.9434 	 
C 	 49.7368 	 24.6834 	 47.1809 	 
C 	 50.1758 	 25.5985 	 46.1756 	 
C 	 49.6077 	 26.8486 	 46.2134 	 
H 	 50.2917 	 23.8315 	 47.3651 	 
C 	 51.3659 	 25.1545 	 45.399 	 
H 	 51.3846 	 25.657 	 44.411 	 
H 	 51.29 	 23.9901 	 45.1748 	 
C 	 52.5725 	 25.5355 	 46.2162 	 
H 	 52.4571 	 25.2798 	 47.2436 	 
H 	 52.5919 	 26.6429 	 46.2881 	 
C 	 53.8342 	 24.9822 	 45.5504 	 
H 	 53.9464 	 25.5854 	 44.658 	 
H 	 53.864 	 23.876 	 45.4505 	 
H 	 54.7363 	 25.2293 	 46.0765 	 
H 	 49.2984 	 31.3018 	 43.8104 	 
H 	 48.2216 	 24.7197 	 48.7415 	 
