34

S 	 -67.1521 	 37.0322 	 138.57 	 
C 	 -66.7025 	 35.8042 	 139.729 	 
C 	 -66.3291 	 34.623 	 139.038 	 
C 	 -66.3843 	 34.7622 	 137.605 	 
C 	 -66.7513 	 36.0378 	 137.175 	 
H 	 -66.1355 	 34.0044 	 136.942 	 
C 	 -65.921 	 33.3029 	 139.763 	 
H 	 -66.015 	 33.5237 	 140.825 	 
H 	 -64.8596 	 33.3143 	 139.487 	 
C 	 -66.6206 	 32.0206 	 139.393 	 
H 	 -66.5957 	 31.9309 	 138.277 	 
H 	 -66.0598 	 31.161 	 139.806 	 
C 	 -68.0601 	 32.0412 	 139.745 	 
H 	 -68.1519 	 31.8982 	 140.814 	 
H 	 -68.488 	 32.9701 	 139.47 	 
H 	 -68.6705 	 31.2364 	 139.278 	 
S 	 -65.9905 	 35.5417 	 134.606 	 
C 	 -66.8619 	 36.1591 	 133.259 	 
C 	 -67.8115 	 37.0614 	 133.713 	 
C 	 -67.9034 	 37.273 	 135.125 	 
C 	 -66.8981 	 36.517 	 135.804 	 
H 	 -68.5062 	 37.4721 	 133.072 	 
C 	 -69.0637 	 37.9819 	 135.816 	 
H 	 -69.0303 	 38.3086 	 136.807 	 
H 	 -69.8061 	 37.2222 	 135.821 	 
C 	 -69.6174 	 39.1589 	 135.004 	 
H 	 -70.5247 	 39.2845 	 135.521 	 
H 	 -69.9224 	 38.6785 	 134.081 	 
C 	 -68.6176 	 40.3229 	 134.773 	 
H 	 -67.8876 	 40.4276 	 135.699 	 
H 	 -69.0511 	 41.254 	 134.489 	 
H 	 -67.9726 	 39.9505 	 133.969 	 
H 	 -66.807 	 35.6966 	 140.818 	 
H 	 -66.8039 	 35.6222 	 132.311 	 
