34

S 	 -66.4535 	 38.9644 	 130.714 	 
C 	 -66.6696 	 40.7109 	 130.774 	 
C 	 -66.2284 	 41.1991 	 131.98 	 
C 	 -65.8825 	 40.1232 	 132.854 	 
C 	 -66.0577 	 38.8462 	 132.448 	 
H 	 -65.5294 	 40.2275 	 133.872 	 
C 	 -66.3427 	 42.6202 	 132.5 	 
H 	 -65.3353 	 43.0848 	 132.373 	 
H 	 -66.5282 	 42.5738 	 133.514 	 
C 	 -67.3863 	 43.4624 	 131.777 	 
H 	 -67.1336 	 44.5314 	 131.968 	 
H 	 -67.2683 	 43.2194 	 130.718 	 
C 	 -68.7789 	 43.1531 	 132.285 	 
H 	 -69.0266 	 42.1054 	 132.312 	 
H 	 -68.8717 	 43.3538 	 133.364 	 
H 	 -69.5058 	 43.7303 	 131.766 	 
S 	 -67.7356 	 36.963 	 133.098 	 
C 	 -67.3701 	 35.6759 	 134.227 	 
C 	 -66.0715 	 35.8502 	 134.666 	 
C 	 -65.3019 	 36.9042 	 134.07 	 
C 	 -66.082 	 37.5999 	 133.179 	 
H 	 -65.6069 	 35.2138 	 135.393 	 
C 	 -63.9029 	 37.3176 	 134.513 	 
H 	 -63.75 	 37.1765 	 135.65 	 
H 	 -63.9332 	 38.3401 	 134.577 	 
C 	 -62.7046 	 36.7146 	 133.743 	 
H 	 -62.609 	 35.6562 	 134.043 	 
H 	 -61.8164 	 37.1145 	 134.115 	 
C 	 -62.8137 	 36.8115 	 132.27 	 
H 	 -63.7382 	 36.3832 	 132.003 	 
H 	 -62.0793 	 36.1923 	 131.901 	 
H 	 -62.6855 	 37.8431 	 131.906 	 
H 	 -67.2193 	 41.2647 	 129.978 	 
H 	 -67.9436 	 34.761 	 134.469 	 
