34

S 	 -2.40353 	 -14.7077 	 87.2064 	 
C 	 -2.45432 	 -16.1843 	 88.1389 	 
C 	 -2.6225 	 -17.2967 	 87.3509 	 
C 	 -2.75229 	 -16.9373 	 85.9907 	 
C 	 -2.42072 	 -15.6151 	 85.7342 	 
H 	 -2.72651 	 -17.6164 	 85.1874 	 
C 	 -2.75788 	 -18.7101 	 87.9731 	 
H 	 -3.1944 	 -19.4272 	 87.3148 	 
H 	 -3.56906 	 -18.6144 	 88.5949 	 
C 	 -1.57305 	 -19.2766 	 88.6483 	 
H 	 -0.866004 	 -19.5204 	 87.8254 	 
H 	 -1.09027 	 -18.4881 	 89.3205 	 
C 	 -1.86845 	 -20.6073 	 89.4375 	 
H 	 -0.932295 	 -20.929 	 89.9212 	 
H 	 -2.67058 	 -20.3634 	 90.1495 	 
H 	 -2.21135 	 -21.4055 	 88.8103 	 
S 	 -1.45486 	 -15.9367 	 83.1741 	 
C 	 -1.75571 	 -14.7611 	 81.9839 	 
C 	 -2.31799 	 -13.6866 	 82.5414 	 
C 	 -2.71209 	 -13.8361 	 83.8998 	 
C 	 -2.31251 	 -15.0413 	 84.3809 	 
H 	 -2.43067 	 -12.764 	 81.956 	 
C 	 -3.30814 	 -12.6904 	 84.7084 	 
H 	 -3.03912 	 -11.7361 	 84.2575 	 
H 	 -2.98053 	 -12.7568 	 85.7532 	 
C 	 -4.85189 	 -12.8394 	 84.6159 	 
H 	 -5.11423 	 -13.8333 	 84.9858 	 
H 	 -5.04931 	 -12.6399 	 83.5179 	 
C 	 -5.54265 	 -11.8017 	 85.4468 	 
H 	 -5.46681 	 -12.1131 	 86.5058 	 
H 	 -6.61006 	 -11.6418 	 85.3334 	 
H 	 -4.97211 	 -10.8306 	 85.5697 	 
H 	 -2.48167 	 -16.2609 	 89.185 	 
H 	 -1.42438 	 -14.8401 	 80.9893 	 
