34

S 	 -76.2296 	 42.8389 	 120.157 	 
C 	 -76.7333 	 41.2944 	 119.588 	 
C 	 -76.1989 	 40.2341 	 120.277 	 
C 	 -75.3266 	 40.6956 	 121.281 	 
C 	 -75.0105 	 42.0729 	 121.205 	 
H 	 -74.9001 	 40.1114 	 122.043 	 
C 	 -76.5089 	 38.7723 	 120.055 	 
H 	 -77.4034 	 38.8499 	 119.465 	 
H 	 -76.6895 	 38.2345 	 121.004 	 
C 	 -75.4387 	 38.0115 	 119.183 	 
H 	 -75.7872 	 36.9762 	 118.826 	 
H 	 -75.2826 	 38.4989 	 118.294 	 
C 	 -74.1143 	 37.8369 	 119.926 	 
H 	 -73.7652 	 38.8131 	 120.192 	 
H 	 -74.2599 	 37.2836 	 120.873 	 
H 	 -73.4405 	 37.3341 	 119.24 	 
S 	 -74.9175 	 44.3565 	 122.756 	 
C 	 -73.4233 	 44.7909 	 123.472 	 
C 	 -72.3898 	 43.9696 	 123.158 	 
C 	 -72.8569 	 42.845 	 122.422 	 
C 	 -74.1865 	 42.9868 	 121.996 	 
H 	 -71.3655 	 44.1109 	 123.337 	 
C 	 -71.9348 	 41.7556 	 122.033 	 
H 	 -72.5394 	 40.9408 	 121.615 	 
H 	 -71.4796 	 41.2626 	 122.825 	 
C 	 -70.9743 	 42.1169 	 120.846 	 
H 	 -71.5075 	 42.4903 	 119.973 	 
H 	 -70.3355 	 41.226 	 120.545 	 
C 	 -69.9934 	 43.1286 	 121.089 	 
H 	 -69.1908 	 43.1487 	 120.334 	 
H 	 -69.4902 	 43.0264 	 122.053 	 
H 	 -70.3856 	 44.1536 	 120.982 	 
H 	 -77.3654 	 41.1394 	 118.726 	 
H 	 -73.2096 	 45.7482 	 124.004 	 
