34

S 	 40.1803 	 18.1629 	 47.3553 	 
C 	 40.8268 	 17.0332 	 48.5247 	 
C 	 42.2086 	 16.9998 	 48.3732 	 
C 	 42.7186 	 18.1505 	 47.6978 	 
C 	 41.7579 	 18.9868 	 47.1876 	 
H 	 43.7068 	 18.4372 	 47.4882 	 
C 	 43.131 	 16.049 	 49.0668 	 
H 	 42.8184 	 15.719 	 50.0952 	 
H 	 44.0806 	 16.5916 	 49.2051 	 
C 	 43.4065 	 14.7388 	 48.2744 	 
H 	 44.3131 	 14.7352 	 47.6766 	 
H 	 43.7741 	 14.1733 	 49.1371 	 
C 	 42.141 	 14.0773 	 47.7767 	 
H 	 42.4449 	 13.0121 	 47.6437 	 
H 	 41.4125 	 14.1158 	 48.5294 	 
H 	 41.7118 	 14.4667 	 46.9239 	 
S 	 43.4038 	 21.1243 	 46.7684 	 
C 	 42.9973 	 22.2927 	 45.516 	 
C 	 41.7016 	 22.0986 	 44.9635 	 
C 	 41.1353 	 20.8514 	 45.4079 	 
C 	 41.9671 	 20.1891 	 46.3386 	 
H 	 41.2931 	 22.789 	 44.323 	 
C 	 39.7036 	 20.4525 	 44.9393 	 
H 	 39.0595 	 21.3405 	 44.921 	 
H 	 39.2165 	 19.8621 	 45.7134 	 
C 	 39.5141 	 19.6849 	 43.552 	 
H 	 39.6217 	 20.3815 	 42.7206 	 
H 	 38.4768 	 19.367 	 43.5261 	 
C 	 40.2663 	 18.3698 	 43.3965 	 
H 	 40.2857 	 18.1142 	 42.3274 	 
H 	 39.7471 	 17.5345 	 43.8807 	 
H 	 41.3438 	 18.2655 	 43.5572 	 
H 	 40.2951 	 16.3377 	 49.1526 	 
H 	 43.5912 	 23.1355 	 45.4178 	 
