34

S 	 5.07676 	 -11.6029 	 72.6408 	 
C 	 3.63008 	 -10.5398 	 72.6312 	 
C 	 3.80417 	 -9.42254 	 71.7553 	 
C 	 5.19639 	 -9.26153 	 71.3637 	 
C 	 6.01899 	 -10.2904 	 71.8458 	 
H 	 5.6372 	 -8.40039 	 70.9071 	 
C 	 2.78101 	 -8.49009 	 71.3383 	 
H 	 2.01788 	 -9.07531 	 70.8756 	 
H 	 3.18993 	 -7.89615 	 70.5307 	 
C 	 2.18731 	 -7.679 	 72.4973 	 
H 	 1.70016 	 -8.40808 	 73.1417 	 
H 	 2.84579 	 -7.08272 	 73.1878 	 
C 	 1.0517 	 -6.78143 	 71.9779 	 
H 	 1.48186 	 -5.82709 	 71.7976 	 
H 	 0.551219 	 -7.02458 	 71.0718 	 
H 	 0.338583 	 -6.73502 	 72.8055 	 
S 	 8.2347 	 -8.79774 	 71.1299 	 
C 	 9.69655 	 -9.66621 	 70.9581 	 
C 	 9.62621 	 -11.0521 	 71.2189 	 
C 	 8.30916 	 -11.4524 	 71.5397 	 
C 	 7.44355 	 -10.3638 	 71.5166 	 
H 	 10.4839 	 -11.7714 	 71.1655 	 
C 	 7.88031 	 -12.8797 	 71.8929 	 
H 	 6.84414 	 -12.9875 	 71.5798 	 
H 	 7.79405 	 -13.0452 	 72.9667 	 
C 	 8.58339 	 -13.9452 	 71.0864 	 
H 	 9.63661 	 -14.0432 	 71.4282 	 
H 	 8.42851 	 -13.8199 	 69.9604 	 
C 	 7.96143 	 -15.3026 	 71.4892 	 
H 	 8.05587 	 -15.4966 	 72.5711 	 
H 	 8.51449 	 -16.0315 	 70.9027 	 
H 	 6.86204 	 -15.435 	 71.1742 	 
H 	 2.66858 	 -10.7745 	 73.1247 	 
H 	 10.5026 	 -9.1446 	 70.5403 	 
