34

S 	 44.5729 	 6.96664 	 101.604 	 
C 	 45.7357 	 7.85161 	 102.478 	 
C 	 46.4065 	 8.81814 	 101.773 	 
C 	 45.9434 	 8.8561 	 100.408 	 
C 	 44.8811 	 7.98992 	 100.221 	 
H 	 46.3866 	 9.38545 	 99.5628 	 
C 	 47.4286 	 9.81763 	 102.316 	 
H 	 47.0291 	 10.0107 	 103.361 	 
H 	 47.3932 	 10.7274 	 101.771 	 
C 	 48.776 	 9.24038 	 102.341 	 
H 	 48.989 	 8.58186 	 103.209 	 
H 	 48.9608 	 8.53732 	 101.519 	 
C 	 49.8488 	 10.291 	 102.224 	 
H 	 50.1308 	 10.6051 	 103.248 	 
H 	 50.8095 	 9.88345 	 101.774 	 
H 	 49.5915 	 11.1393 	 101.634 	 
S 	 43.7212 	 6.12819 	 98.6271 	 
C 	 43.0653 	 6.57305 	 97.1318 	 
C 	 43.2208 	 7.9062 	 96.8196 	 
C 	 43.9742 	 8.59864 	 97.7954 	 
C 	 44.1402 	 7.83414 	 98.9185 	 
H 	 42.7865 	 8.34328 	 95.9023 	 
C 	 44.4328 	 10.0513 	 97.7256 	 
H 	 45.5917 	 9.90668 	 97.7563 	 
H 	 44.3539 	 10.6026 	 98.6957 	 
C 	 43.9231 	 10.9179 	 96.533 	 
H 	 44.2597 	 10.4533 	 95.6058 	 
H 	 44.4377 	 11.83 	 96.5052 	 
C 	 42.457 	 11.2636 	 96.5035 	 
H 	 41.7485 	 10.4351 	 96.342 	 
H 	 42.352 	 12.0726 	 95.7267 	 
H 	 42.1038 	 11.8113 	 97.3467 	 
H 	 45.9162 	 7.56494 	 103.577 	 
H 	 42.6008 	 5.79303 	 96.4915 	 
