34

S 	 10.714 	 20.7566 	 50.5076 	 
C 	 11.7986 	 21.2633 	 51.8423 	 
C 	 11.2691 	 22.2539 	 52.6258 	 
C 	 10.1107 	 22.8353 	 52.0085 	 
C 	 9.69692 	 22.1758 	 50.8528 	 
H 	 9.59515 	 23.7992 	 52.325 	 
C 	 12.0116 	 22.8338 	 53.8278 	 
H 	 12.1304 	 23.911 	 53.5355 	 
H 	 13.016 	 22.4058 	 53.9025 	 
C 	 11.345 	 22.8397 	 55.1963 	 
H 	 10.5317 	 23.6605 	 55.235 	 
H 	 10.8397 	 21.8191 	 55.4328 	 
C 	 12.2972 	 23.2081 	 56.4157 	 
H 	 11.7268 	 23.2856 	 57.325 	 
H 	 13.066 	 22.3788 	 56.4954 	 
H 	 12.7746 	 24.175 	 56.185 	 
S 	 8.94991 	 22.9617 	 48.2729 	 
C 	 7.37654 	 23.436 	 47.9107 	 
C 	 6.59256 	 23.3496 	 49.0851 	 
C 	 7.32177 	 23.0157 	 50.2719 	 
C 	 8.61921 	 22.6623 	 49.9609 	 
H 	 5.56761 	 23.7644 	 48.9896 	 
C 	 6.48578 	 22.7096 	 51.5338 	 
H 	 5.52341 	 23.0884 	 51.2475 	 
H 	 6.80118 	 23.2834 	 52.3591 	 
C 	 6.40429 	 21.272 	 52.0291 	 
H 	 5.48774 	 21.2425 	 52.6092 	 
H 	 7.33754 	 21.0628 	 52.5604 	 
C 	 6.31214 	 20.1481 	 50.9205 	 
H 	 6.49395 	 19.0846 	 51.2809 	 
H 	 7.0373 	 20.4418 	 50.0881 	 
H 	 5.33749 	 20.1521 	 50.3991 	 
H 	 12.7796 	 20.8085 	 52.0048 	 
H 	 7.00265 	 23.9787 	 47.0192 	 
