34

S 	 -37.6451 	 12.661 	 80.1891 	 
C 	 -37.1532 	 11.9941 	 78.6592 	 
C 	 -37.6533 	 12.7237 	 77.5605 	 
C 	 -38.4496 	 13.8337 	 77.9638 	 
C 	 -38.6115 	 13.8899 	 79.3088 	 
H 	 -38.9471 	 14.7143 	 77.4568 	 
C 	 -37.388 	 12.3694 	 76.1488 	 
H 	 -37.7861 	 13.1373 	 75.5763 	 
H 	 -37.9276 	 11.4556 	 75.9734 	 
C 	 -35.917 	 12.156 	 75.5476 	 
H 	 -35.2423 	 11.7992 	 76.3372 	 
H 	 -35.9193 	 11.4475 	 74.7611 	 
C 	 -35.2223 	 13.4806 	 75.0956 	 
H 	 -35.7721 	 13.9872 	 74.3248 	 
H 	 -35.1281 	 14.1802 	 76.0174 	 
H 	 -34.2485 	 13.1849 	 74.7121 	 
S 	 -39.0584 	 16.5868 	 79.9776 	 
C 	 -40.5639 	 16.9143 	 80.801 	 
C 	 -41.3219 	 15.8258 	 81.0777 	 
C 	 -40.7218 	 14.6163 	 80.6208 	 
C 	 -39.4704 	 14.8651 	 80.0423 	 
H 	 -42.3021 	 15.8853 	 81.5934 	 
C 	 -41.3112 	 13.2721 	 80.8721 	 
H 	 -41.7574 	 13.1468 	 81.8491 	 
H 	 -40.5657 	 12.4624 	 80.8389 	 
C 	 -42.4677 	 12.8103 	 79.981 	 
H 	 -43.2449 	 13.5785 	 79.9674 	 
H 	 -42.9474 	 11.9501 	 80.4046 	 
C 	 -42.2242 	 12.3876 	 78.4667 	 
H 	 -43.2084 	 12.277 	 78.0484 	 
H 	 -41.5518 	 11.5108 	 78.2999 	 
H 	 -41.8452 	 13.3459 	 77.9579 	 
H 	 -36.7262 	 11.0354 	 78.5198 	 
H 	 -40.9803 	 17.933 	 80.9343 	 
