34

S 	 -0.789993 	 -15.3046 	 82.5185 	 
C 	 -1.86026 	 -16.6245 	 82.098 	 
C 	 -3.14599 	 -16.251 	 81.8399 	 
C 	 -3.30756 	 -14.9029 	 82.2927 	 
C 	 -2.15299 	 -14.2495 	 82.6777 	 
H 	 -4.18503 	 -14.2257 	 82.3287 	 
C 	 -4.23071 	 -17.1451 	 81.1994 	 
H 	 -4.42794 	 -17.9273 	 81.9981 	 
H 	 -3.61585 	 -17.5187 	 80.4326 	 
C 	 -5.5033 	 -16.4472 	 80.6256 	 
H 	 -6.18442 	 -16.1862 	 81.4149 	 
H 	 -5.17036 	 -15.5572 	 79.9978 	 
C 	 -6.2041 	 -17.2996 	 79.4973 	 
H 	 -7.21045 	 -16.8149 	 79.2334 	 
H 	 -5.60644 	 -17.4127 	 78.5636 	 
H 	 -6.4522 	 -18.2648 	 79.8239 	 
S 	 -1.49659 	 -12.4465 	 84.8486 	 
C 	 -1.34112 	 -10.7734 	 84.3474 	 
C 	 -1.34887 	 -10.5842 	 82.9911 	 
C 	 -1.77662 	 -11.7639 	 82.318 	 
C 	 -1.93035 	 -12.8956 	 83.1306 	 
H 	 -1.07561 	 -9.64336 	 82.5391 	 
C 	 -1.7612 	 -11.8244 	 80.7794 	 
H 	 -1.04244 	 -12.5989 	 80.5172 	 
H 	 -1.47528 	 -10.8781 	 80.4025 	 
C 	 -3.06918 	 -11.9972 	 80.081 	 
H 	 -3.47822 	 -12.8849 	 80.4919 	 
H 	 -2.681 	 -12.2146 	 79.0856 	 
C 	 -4.03633 	 -10.8186 	 80.3779 	 
H 	 -4.0658 	 -10.6434 	 81.4566 	 
H 	 -5.12967 	 -11.0211 	 80.0663 	 
H 	 -3.79546 	 -9.88131 	 79.8165 	 
H 	 -1.56673 	 -17.6447 	 81.8912 	 
H 	 -0.903803 	 -10.0336 	 85.0479 	 
