34

S 	 -35.299 	 74.9597 	 150.112 	 
C 	 -34.0892 	 76.2 	 149.816 	 
C 	 -32.9566 	 76.074 	 150.591 	 
C 	 -33.1166 	 74.9979 	 151.534 	 
C 	 -34.2628 	 74.2363 	 151.305 	 
H 	 -32.3215 	 74.6071 	 152.161 	 
C 	 -31.7436 	 77.0008 	 150.54 	 
H 	 -31.9396 	 77.8105 	 151.257 	 
H 	 -31.7183 	 77.3691 	 149.555 	 
C 	 -30.3597 	 76.42 	 150.884 	 
H 	 -30.294 	 76.1252 	 151.944 	 
H 	 -30.0386 	 75.608 	 150.239 	 
C 	 -29.2303 	 77.3946 	 150.703 	 
H 	 -28.2858 	 76.985 	 150.934 	 
H 	 -29.2389 	 77.8436 	 149.698 	 
H 	 -29.3553 	 78.2351 	 151.446 	 
S 	 -35.6167 	 71.8915 	 150.891 	 
C 	 -35.4898 	 70.6826 	 152.185 	 
C 	 -35.0357 	 71.1881 	 153.388 	 
C 	 -34.629 	 72.556 	 153.27 	 
C 	 -34.7653 	 73.0282 	 151.941 	 
H 	 -35.0477 	 70.5679 	 154.263 	 
C 	 -34.0947 	 73.4351 	 154.396 	 
H 	 -34.9424 	 73.8176 	 154.887 	 
H 	 -33.5206 	 74.2667 	 154.003 	 
C 	 -33.1652 	 72.6604 	 155.38 	 
H 	 -32.186 	 72.5747 	 154.924 	 
H 	 -33.5097 	 71.6906 	 155.742 	 
C 	 -32.9136 	 73.5888 	 156.635 	 
H 	 -32.1873 	 73.1032 	 157.284 	 
H 	 -33.8149 	 73.7559 	 157.348 	 
H 	 -32.3883 	 74.4428 	 156.239 	 
H 	 -34.1045 	 76.9415 	 148.991 	 
H 	 -35.4006 	 69.6018 	 152.045 	 
