34

S 	 43.3262 	 12.1511 	 48.558 	 
C 	 43.6766 	 10.9239 	 49.6953 	 
C 	 43.6694 	 11.3234 	 51.022 	 
C 	 43.6602 	 12.7253 	 51.0618 	 
C 	 43.485 	 13.332 	 49.8779 	 
H 	 43.8935 	 13.2674 	 51.9028 	 
C 	 43.9234 	 10.4107 	 52.2449 	 
H 	 43.5553 	 9.43668 	 51.8814 	 
H 	 43.1846 	 10.7722 	 53.0316 	 
C 	 45.3721 	 10.4507 	 52.7525 	 
H 	 45.9166 	 10.1484 	 51.842 	 
H 	 45.6436 	 11.4428 	 53.0487 	 
C 	 45.7415 	 9.54663 	 53.8839 	 
H 	 45.0767 	 9.55889 	 54.766 	 
H 	 45.8169 	 8.52855 	 53.5386 	 
H 	 46.7327 	 9.74677 	 54.2526 	 
S 	 44.9725 	 15.1235 	 48.4761 	 
C 	 44.7252 	 16.7852 	 48.7549 	 
C 	 43.8474 	 17.0159 	 49.7541 	 
C 	 43.2391 	 15.8388 	 50.2684 	 
C 	 43.6947 	 14.7247 	 49.5773 	 
H 	 43.7963 	 17.96 	 50.1535 	 
C 	 42.1375 	 15.6727 	 51.2378 	 
H 	 42.6125 	 15.7885 	 52.2053 	 
H 	 41.8445 	 14.6381 	 51.2892 	 
C 	 40.9603 	 16.6815 	 50.9528 	 
H 	 41.2719 	 17.6868 	 50.8505 	 
H 	 40.2378 	 16.7402 	 51.7896 	 
C 	 40.2763 	 16.3444 	 49.625 	 
H 	 39.5287 	 17.1155 	 49.4126 	 
H 	 39.7818 	 15.3651 	 49.7418 	 
H 	 40.9369 	 16.4099 	 48.7409 	 
H 	 43.7964 	 9.87464 	 49.4377 	 
H 	 45.2859 	 17.5142 	 48.2423 	 
