34

S 	 -26.2743 	 43.9729 	 58.0664 	 
C 	 -26.2536 	 45.7036 	 58.0084 	 
C 	 -25.0418 	 46.2107 	 57.6105 	 
C 	 -24.239 	 45.1677 	 57.038 	 
C 	 -24.7647 	 43.9138 	 57.2117 	 
H 	 -23.3445 	 45.1582 	 56.5953 	 
C 	 -24.686 	 47.6495 	 57.4338 	 
H 	 -24.6103 	 47.7017 	 56.3131 	 
H 	 -23.6217 	 47.8206 	 57.7943 	 
C 	 -25.5469 	 48.7636 	 58.0311 	 
H 	 -25.0996 	 49.7028 	 57.638 	 
H 	 -26.5849 	 48.5998 	 57.8614 	 
C 	 -25.4987 	 48.7507 	 59.5808 	 
H 	 -24.5242 	 49.1916 	 59.9558 	 
H 	 -26.3514 	 49.2888 	 60.0111 	 
H 	 -25.5678 	 47.8069 	 60.0818 	 
S 	 -23.6451 	 41.6693 	 58.3813 	 
C 	 -22.7645 	 40.5037 	 57.3197 	 
C 	 -22.826 	 40.8963 	 55.9969 	 
C 	 -23.5968 	 42.107 	 55.8215 	 
C 	 -24.0105 	 42.7213 	 56.9985 	 
H 	 -22.4678 	 40.2553 	 55.1954 	 
C 	 -23.996 	 42.6406 	 54.4622 	 
H 	 -23.2941 	 42.0858 	 53.8333 	 
H 	 -23.6937 	 43.6953 	 54.4798 	 
C 	 -25.438 	 42.3157 	 53.9941 	 
H 	 -25.5651 	 42.6395 	 52.9627 	 
H 	 -26.0861 	 42.9916 	 54.6376 	 
C 	 -25.8647 	 40.8931 	 54.2328 	 
H 	 -26.7771 	 40.8627 	 53.7362 	 
H 	 -26.0885 	 40.6411 	 55.3096 	 
H 	 -25.0714 	 40.2465 	 53.8622 	 
H 	 -27.0494 	 46.2605 	 58.3928 	 
H 	 -22.451 	 39.5372 	 57.7486 	 
