34

S 	 42.1115 	 24.094 	 81.9227 	 
C 	 41.3254 	 24.0927 	 80.3091 	 
C 	 41.9 	 23.1818 	 79.4765 	 
C 	 42.9205 	 22.3968 	 80.144 	 
C 	 43.1551 	 22.7532 	 81.4245 	 
H 	 43.5004 	 21.5754 	 79.7224 	 
C 	 41.4679 	 22.7626 	 78.0809 	 
H 	 40.7707 	 23.5992 	 77.719 	 
H 	 40.9887 	 21.8028 	 78.2837 	 
C 	 42.6492 	 22.4588 	 77.0808 	 
H 	 43.3335 	 23.3882 	 76.8991 	 
H 	 43.3165 	 21.7344 	 77.5355 	 
C 	 42.1309 	 22.037 	 75.6982 	 
H 	 42.8967 	 21.4041 	 75.2523 	 
H 	 41.2282 	 21.4963 	 75.8175 	 
H 	 41.9758 	 22.9009 	 75.041 	 
S 	 44.9701 	 23.3002 	 83.3011 	 
C 	 45.7816 	 21.9773 	 84.1711 	 
C 	 45.5404 	 20.7664 	 83.5671 	 
C 	 44.4831 	 20.8189 	 82.5459 	 
C 	 44.1025 	 22.1909 	 82.3684 	 
H 	 45.9402 	 19.8468 	 83.9903 	 
C 	 43.7558 	 19.5742 	 82.0128 	 
H 	 44.3102 	 18.6804 	 81.7301 	 
H 	 43.2657 	 19.9263 	 81.1188 	 
C 	 42.7553 	 18.9966 	 83.0053 	 
H 	 42.1786 	 19.8612 	 83.3231 	 
H 	 43.2417 	 18.6026 	 83.9075 	 
C 	 41.8981 	 17.8183 	 82.3736 	 
H 	 41.1447 	 17.3891 	 83.1082 	 
H 	 42.4962 	 16.9915 	 82.0054 	 
H 	 41.294 	 18.2075 	 81.5236 	 
H 	 40.3652 	 24.6437 	 80.0734 	 
H 	 46.5801 	 22.2145 	 84.8922 	 
