34

S 	 -40.1622 	 35.1163 	 77.9751 	 
C 	 -40.0298 	 35.636 	 76.3739 	 
C 	 -40.907 	 36.6261 	 76.131 	 
C 	 -41.8661 	 36.7799 	 77.1865 	 
C 	 -41.6341 	 36.0035 	 78.2888 	 
H 	 -42.7335 	 37.4028 	 77.2252 	 
C 	 -40.8387 	 37.5373 	 74.9124 	 
H 	 -41.2878 	 37.0256 	 74.0503 	 
H 	 -39.8192 	 37.6053 	 74.5131 	 
C 	 -41.5073 	 38.8927 	 75.1595 	 
H 	 -41.3767 	 39.4789 	 74.3265 	 
H 	 -42.5776 	 38.7624 	 75.2753 	 
C 	 -40.8494 	 39.8136 	 76.2165 	 
H 	 -41.3773 	 40.7492 	 76.3291 	 
H 	 -40.7633 	 39.4711 	 77.2423 	 
H 	 -39.8408 	 40.1328 	 75.8799 	 
S 	 -43.7188 	 37.1667 	 79.558 	 
C 	 -44.1886 	 36.7233 	 81.1821 	 
C 	 -43.429 	 35.6563 	 81.579 	 
C 	 -42.4887 	 35.2493 	 80.6857 	 
C 	 -42.4712 	 35.9789 	 79.4891 	 
H 	 -43.6091 	 35.1244 	 82.5014 	 
C 	 -41.5044 	 34.144 	 80.9567 	 
H 	 -41.2997 	 34.0501 	 82.0086 	 
H 	 -40.491 	 34.4387 	 80.4986 	 
C 	 -42.0006 	 32.749 	 80.6881 	 
H 	 -42.2399 	 32.7396 	 79.6649 	 
H 	 -42.8863 	 32.455 	 81.2412 	 
C 	 -40.9321 	 31.6973 	 80.9456 	 
H 	 -40.0349 	 31.8274 	 80.2996 	 
H 	 -41.2866 	 30.6597 	 80.854 	 
H 	 -40.5107 	 31.7503 	 82.0049 	 
H 	 -39.1951 	 35.5927 	 75.7914 	 
H 	 -45.0601 	 37.0872 	 81.7098 	 
