34

S 	 57.5659 	 -5.34134 	 88.2918 	 
C 	 55.8924 	 -5.85048 	 88.1136 	 
C 	 55.0892 	 -4.83452 	 87.71 	 
C 	 55.8137 	 -3.61278 	 87.5131 	 
C 	 57.1222 	 -3.76361 	 87.7541 	 
H 	 55.3762 	 -2.67598 	 87.083 	 
C 	 53.5957 	 -4.96841 	 87.3093 	 
H 	 53.72 	 -5.49122 	 86.344 	 
H 	 53.1043 	 -4.01628 	 87.0871 	 
C 	 52.7399 	 -5.63805 	 88.4134 	 
H 	 53.1163 	 -6.60154 	 88.6467 	 
H 	 52.8272 	 -5.1821 	 89.3639 	 
C 	 51.2313 	 -5.82834 	 88.1535 	 
H 	 51.0395 	 -6.62478 	 87.4483 	 
H 	 50.6172 	 -6.32124 	 88.9002 	 
H 	 50.7309 	 -4.85325 	 87.8765 	 
S 	 59.4111 	 -2.92828 	 86.2961 	 
C 	 59.8694 	 -1.21548 	 86.4608 	 
C 	 59.0036 	 -0.496491 	 87.3055 	 
C 	 58.0135 	 -1.34478 	 87.9392 	 
C 	 58.1098 	 -2.71111 	 87.6412 	 
H 	 59.1012 	 0.591447 	 87.4359 	 
C 	 57.0149 	 -0.786193 	 88.8655 	 
H 	 56.0797 	 -0.900965 	 88.4815 	 
H 	 57.1355 	 0.309091 	 88.7911 	 
C 	 57.003 	 -1.35235 	 90.3115 	 
H 	 57.9403 	 -1.10543 	 90.8615 	 
H 	 57.1007 	 -2.53614 	 90.3008 	 
C 	 55.9206 	 -0.832654 	 91.2008 	 
H 	 55.88 	 -1.5317 	 92.0875 	 
H 	 54.9826 	 -1.00478 	 90.7702 	 
H 	 56.1204 	 0.101647 	 91.5812 	 
H 	 55.72 	 -6.92624 	 88.1755 	 
H 	 60.7489 	 -0.659279 	 85.9237 	 
