34

S 	 -30.6917 	 62.2119 	 121.303 	 
C 	 -32.2479 	 61.6353 	 120.818 	 
C 	 -32.6626 	 62.1492 	 119.61 	 
C 	 -31.5672 	 62.9465 	 118.982 	 
C 	 -30.439 	 62.9828 	 119.757 	 
H 	 -31.6743 	 63.3605 	 117.998 	 
C 	 -34.0832 	 62.2017 	 119.024 	 
H 	 -34.6879 	 62.9561 	 119.553 	 
H 	 -34.5792 	 61.2421 	 119.284 	 
C 	 -34.2099 	 62.4367 	 117.547 	 
H 	 -35.2988 	 62.4338 	 117.371 	 
H 	 -33.7989 	 63.4372 	 117.407 	 
C 	 -33.4724 	 61.268 	 116.745 	 
H 	 -33.9093 	 60.2887 	 116.923 	 
H 	 -33.6097 	 61.4755 	 115.715 	 
H 	 -32.3648 	 61.2252 	 116.917 	 
S 	 -27.6327 	 63.1038 	 119.993 	 
C 	 -26.7597 	 64.2765 	 119.002 	 
C 	 -27.6526 	 65.1253 	 118.366 	 
C 	 -29.0462 	 64.7051 	 118.524 	 
C 	 -29.2265 	 63.6536 	 119.423 	 
H 	 -27.3211 	 65.7946 	 117.564 	 
C 	 -30.018 	 65.4696 	 117.629 	 
H 	 -29.9771 	 66.5004 	 117.831 	 
H 	 -31.0056 	 65.2385 	 117.873 	 
C 	 -29.92 	 65.2978 	 116.105 	 
H 	 -30.3416 	 64.3445 	 115.783 	 
H 	 -28.8199 	 65.3784 	 115.73 	 
C 	 -30.8561 	 66.1096 	 115.338 	 
H 	 -31.9109 	 65.8184 	 115.592 	 
H 	 -30.766 	 66.0861 	 114.201 	 
H 	 -30.7046 	 67.2138 	 115.514 	 
H 	 -32.9266 	 61.0943 	 121.444 	 
H 	 -25.7381 	 64.3502 	 118.69 	 
