34

S 	 -111.206 	 54.1948 	 114.981 	 
C 	 -112.01 	 54.9161 	 113.673 	 
C 	 -111.735 	 54.2754 	 112.451 	 
C 	 -110.992 	 53.0238 	 112.601 	 
C 	 -110.781 	 52.7717 	 113.956 	 
H 	 -110.67 	 52.2772 	 111.804 	 
C 	 -112.321 	 54.8215 	 111.161 	 
H 	 -113.326 	 55.2907 	 111.331 	 
H 	 -112.298 	 54.0707 	 110.401 	 
C 	 -111.415 	 55.9296 	 110.544 	 
H 	 -111.452 	 56.7632 	 111.236 	 
H 	 -110.372 	 55.7294 	 110.496 	 
C 	 -111.938 	 56.3686 	 109.185 	 
H 	 -112.918 	 56.9333 	 109.324 	 
H 	 -111.284 	 57.0392 	 108.786 	 
H 	 -112.062 	 55.4509 	 108.639 	 
S 	 -108.543 	 52.1141 	 115.298 	 
C 	 -108.218 	 50.4378 	 115.753 	 
C 	 -109.218 	 49.6533 	 115.316 	 
C 	 -110.24 	 50.3123 	 114.569 	 
C 	 -109.984 	 51.6972 	 114.491 	 
H 	 -109.14 	 48.555 	 115.586 	 
C 	 -111.392 	 49.5768 	 113.915 	 
H 	 -111.029 	 48.5725 	 113.641 	 
H 	 -111.673 	 50.0489 	 113.02 	 
C 	 -112.595 	 49.3872 	 114.879 	 
H 	 -112.26 	 48.8916 	 115.807 	 
H 	 -113.262 	 48.6507 	 114.44 	 
C 	 -113.427 	 50.5632 	 115.126 	 
H 	 -113.777 	 50.9988 	 114.182 	 
H 	 -112.864 	 51.266 	 115.787 	 
H 	 -114.394 	 50.2822 	 115.618 	 
H 	 -112.581 	 55.8067 	 113.795 	 
H 	 -107.34 	 50.0798 	 116.248 	 
