34

S 	 49.3711 	 4.84284 	 91.049 	 
C 	 49.4803 	 6.61231 	 90.7714 	 
C 	 49.5855 	 7.25888 	 92.0134 	 
C 	 49.4945 	 6.31562 	 93.0899 	 
C 	 49.5054 	 4.9854 	 92.7288 	 
H 	 49.4378 	 6.472 	 94.1796 	 
C 	 49.754 	 8.73011 	 92.2654 	 
H 	 49.4546 	 9.03398 	 93.3216 	 
H 	 48.9682 	 9.25616 	 91.6277 	 
C 	 51.1399 	 9.17575 	 91.8931 	 
H 	 51.9562 	 8.75219 	 92.4957 	 
H 	 51.4963 	 9.02446 	 90.8563 	 
C 	 51.3872 	 10.66 	 92.2073 	 
H 	 52.4506 	 10.8615 	 92.4115 	 
H 	 50.9906 	 11.3572 	 91.4708 	 
H 	 50.8131 	 10.908 	 93.1146 	 
S 	 47.7081 	 2.94916 	 93.2697 	 
C 	 47.7417 	 2.17392 	 94.8174 	 
C 	 48.8349 	 2.49171 	 95.5766 	 
C 	 49.5564 	 3.51505 	 94.9485 	 
C 	 49.0863 	 3.92092 	 93.6901 	 
H 	 49.0451 	 2.03725 	 96.5593 	 
C 	 50.7413 	 3.98739 	 95.629 	 
H 	 50.5244 	 4.1878 	 96.6321 	 
H 	 51.0108 	 4.97801 	 95.2283 	 
C 	 51.9707 	 3.12541 	 95.428 	 
H 	 51.8392 	 2.08185 	 95.6776 	 
H 	 52.7433 	 3.43623 	 96.2012 	 
C 	 52.5507 	 3.20795 	 94.0562 	 
H 	 51.9106 	 2.72645 	 93.2752 	 
H 	 53.4958 	 2.6605 	 94.0157 	 
H 	 52.7749 	 4.27718 	 93.841 	 
H 	 49.1924 	 7.12228 	 89.849 	 
H 	 46.9594 	 1.46535 	 95.1705 	 
