34

S 	 -33.7651 	 57.3991 	 104.968 	 
C 	 -32.4845 	 57.7993 	 103.879 	 
C 	 -31.6206 	 58.6941 	 104.404 	 
C 	 -31.903 	 58.8853 	 105.816 	 
C 	 -33.0699 	 58.3923 	 106.298 	 
H 	 -31.3405 	 59.512 	 106.444 	 
C 	 -30.3512 	 59.2306 	 103.756 	 
H 	 -30.5376 	 60.1513 	 103.278 	 
H 	 -29.8744 	 58.5049 	 103.076 	 
C 	 -29.3133 	 59.5342 	 104.848 	 
H 	 -29.633 	 60.2267 	 105.603 	 
H 	 -29.1619 	 58.6802 	 105.488 	 
C 	 -27.8631 	 59.743 	 104.273 	 
H 	 -27.9201 	 60.6102 	 103.682 	 
H 	 -27.0387 	 59.8207 	 104.925 	 
H 	 -27.6502 	 58.8175 	 103.751 	 
S 	 -34.3771 	 56.815 	 108.006 	 
C 	 -34.7167 	 57.3064 	 109.592 	 
C 	 -34.2416 	 58.564 	 109.848 	 
C 	 -33.6186 	 59.1592 	 108.729 	 
C 	 -33.6301 	 58.3557 	 107.622 	 
H 	 -34.3956 	 58.9464 	 110.851 	 
C 	 -33.0876 	 60.6096 	 108.675 	 
H 	 -33.2595 	 61.0351 	 107.676 	 
H 	 -32.0157 	 60.4691 	 108.721 	 
C 	 -33.5674 	 61.6209 	 109.75 	 
H 	 -33.2862 	 61.2002 	 110.695 	 
H 	 -34.6376 	 61.79 	 109.628 	 
C 	 -33.0208 	 63.0126 	 109.677 	 
H 	 -31.9222 	 63.118 	 109.699 	 
H 	 -33.2625 	 63.378 	 110.659 	 
H 	 -33.3982 	 63.5844 	 108.821 	 
H 	 -32.5107 	 57.4959 	 102.793 	 
H 	 -35.2752 	 56.7875 	 110.375 	 
