34

S 	 -8.28677 	 77.6838 	 51.5108 	 
C 	 -6.60398 	 78.2316 	 51.3962 	 
C 	 -5.6951 	 77.2913 	 50.8366 	 
C 	 -6.45548 	 76.0526 	 50.7074 	 
C 	 -7.83657 	 76.1548 	 50.8897 	 
H 	 -6.13968 	 75.1151 	 50.3149 	 
C 	 -4.25468 	 77.5666 	 50.3712 	 
H 	 -4.25908 	 78.6166 	 50.1423 	 
H 	 -4.1505 	 77.0599 	 49.4387 	 
C 	 -3.03152 	 77.4091 	 51.4122 	 
H 	 -3.19295 	 77.8889 	 52.3585 	 
H 	 -2.93578 	 76.4349 	 51.7637 	 
C 	 -1.56415 	 77.7367 	 50.9279 	 
H 	 -0.881103 	 77.6808 	 51.7405 	 
H 	 -1.31089 	 76.9776 	 50.183 	 
H 	 -1.52335 	 78.7213 	 50.5623 	 
S 	 -9.88376 	 74.792 	 51.8006 	 
C 	 -10.9556 	 73.753 	 50.7924 	 
C 	 -10.3036 	 73.6191 	 49.5738 	 
C 	 -9.07273 	 74.3947 	 49.4339 	 
C 	 -8.8343 	 75.1321 	 50.5609 	 
H 	 -10.6825 	 72.8886 	 48.9158 	 
C 	 -8.34423 	 74.428 	 48.0501 	 
H 	 -7.70525 	 75.3427 	 47.9843 	 
H 	 -9.18939 	 74.5347 	 47.4014 	 
C 	 -7.64362 	 73.1681 	 47.5757 	 
H 	 -7.31062 	 73.1887 	 46.5009 	 
H 	 -8.3832 	 72.3682 	 47.5955 	 
C 	 -6.38683 	 72.7402 	 48.4147 	 
H 	 -6.03544 	 71.807 	 47.9417 	 
H 	 -6.69816 	 72.5108 	 49.4682 	 
H 	 -5.65036 	 73.5233 	 48.4689 	 
H 	 -6.25953 	 79.1941 	 51.6217 	 
H 	 -11.5785 	 73.0614 	 51.2166 	 
