34

S 	 -15.1064 	 -7.95242 	 84.2737 	 
C 	 -13.7754 	 -7.36263 	 83.3047 	 
C 	 -12.6295 	 -7.04838 	 84.022 	 
C 	 -12.9236 	 -7.18116 	 85.4177 	 
C 	 -14.1656 	 -7.6565 	 85.7344 	 
H 	 -12.1261 	 -7.0907 	 86.1884 	 
C 	 -11.2984 	 -6.54351 	 83.4591 	 
H 	 -11.4774 	 -5.59699 	 82.9758 	 
H 	 -10.9099 	 -7.37605 	 82.8283 	 
C 	 -10.2765 	 -6.24687 	 84.5358 	 
H 	 -10.7138 	 -5.55583 	 85.2699 	 
H 	 -10.0587 	 -7.187 	 85.038 	 
C 	 -8.8873 	 -5.76117 	 84.0918 	 
H 	 -8.16819 	 -6.11916 	 84.8389 	 
H 	 -8.59376 	 -6.19264 	 83.1635 	 
H 	 -8.89699 	 -4.66892 	 84.0273 	 
S 	 -14.9292 	 -9.81301 	 87.3131 	 
C 	 -15.6224 	 -9.55865 	 88.8794 	 
C 	 -15.5846 	 -8.18355 	 89.2743 	 
C 	 -15.0482 	 -7.34123 	 88.2096 	 
C 	 -14.6787 	 -8.07556 	 87.0679 	 
H 	 -16.062 	 -7.78609 	 90.134 	 
C 	 -15.1397 	 -5.82475 	 88.1631 	 
H 	 -15.5655 	 -5.56971 	 87.2717 	 
H 	 -14.1067 	 -5.55498 	 88.0981 	 
C 	 -15.8814 	 -5.06489 	 89.295 	 
H 	 -15.265 	 -5.17499 	 90.2003 	 
H 	 -16.7979 	 -5.49057 	 89.6144 	 
C 	 -16.0121 	 -3.5929 	 88.9682 	 
H 	 -16.7613 	 -3.40725 	 88.1576 	 
H 	 -15.017 	 -3.12834 	 88.756 	 
H 	 -16.2924 	 -2.9577 	 89.802 	 
H 	 -13.8432 	 -7.30611 	 82.17 	 
H 	 -16.2423 	 -10.229 	 89.391 	 
