34

S 	 44.3173 	 20.3752 	 45.7378 	 
C 	 42.9234 	 19.3607 	 45.3068 	 
C 	 42.0886 	 20.0186 	 44.4946 	 
C 	 42.5556 	 21.3695 	 44.1843 	 
C 	 43.7027 	 21.763 	 44.8221 	 
H 	 42.1073 	 22.0152 	 43.4914 	 
C 	 40.7452 	 19.4608 	 43.974 	 
H 	 40.7094 	 18.4672 	 44.4176 	 
H 	 40.96 	 19.2664 	 42.8935 	 
C 	 39.5342 	 20.2851 	 44.1289 	 
H 	 39.8396 	 21.2119 	 43.8141 	 
H 	 38.7381 	 20.1371 	 43.3851 	 
C 	 38.7869 	 20.3183 	 45.4922 	 
H 	 37.9928 	 21.0296 	 45.4819 	 
H 	 38.3837 	 19.3019 	 45.7529 	 
H 	 39.5467 	 20.552 	 46.2383 	 
S 	 45.9956 	 23.1595 	 44.6932 	 
C 	 46.0286 	 24.9093 	 44.6924 	 
C 	 44.789 	 25.4419 	 44.8424 	 
C 	 43.767 	 24.4332 	 44.8986 	 
C 	 44.266 	 23.114 	 44.8283 	 
H 	 44.6914 	 26.5159 	 44.8417 	 
C 	 42.2793 	 24.7985 	 44.8211 	 
H 	 42.1061 	 25.3174 	 45.7489 	 
H 	 41.6875 	 23.9063 	 44.716 	 
C 	 42.0503 	 25.7556 	 43.6504 	 
H 	 42.6257 	 26.6883 	 43.7295 	 
H 	 41.041 	 26.1015 	 43.6297 	 
C 	 42.2722 	 25.1107 	 42.28 	 
H 	 41.5999 	 24.2896 	 42.0803 	 
H 	 43.3201 	 24.8492 	 42.1498 	 
H 	 41.9859 	 25.7067 	 41.521 	 
H 	 42.7038 	 18.3944 	 45.6327 	 
H 	 46.9278 	 25.4764 	 44.9341 	 
