34

S 	 -35.2855 	 55.8518 	 107.693 	 
C 	 -35.4385 	 57.5197 	 107.294 	 
C 	 -34.4164 	 57.9061 	 106.457 	 
C 	 -33.5205 	 56.7954 	 106.118 	 
C 	 -33.6997 	 55.6532 	 106.816 	 
H 	 -32.6926 	 56.7932 	 105.417 	 
C 	 -34.3494 	 59.2607 	 105.779 	 
H 	 -33.4912 	 59.6796 	 106.328 	 
H 	 -35.1523 	 59.9531 	 105.998 	 
C 	 -34.2759 	 59.203 	 104.223 	 
H 	 -33.3746 	 58.6648 	 104.029 	 
H 	 -35.1752 	 58.739 	 103.802 	 
C 	 -34.1828 	 60.5912 	 103.721 	 
H 	 -35.0256 	 61.2151 	 103.735 	 
H 	 -33.434 	 61.1972 	 104.289 	 
H 	 -33.767 	 60.6867 	 102.691 	 
S 	 -34.1502 	 52.9702 	 107.014 	 
C 	 -32.8432 	 51.8374 	 107.3 	 
C 	 -31.6352 	 52.5406 	 107.16 	 
C 	 -31.7887 	 53.9205 	 106.842 	 
C 	 -33.0944 	 54.329 	 106.837 	 
H 	 -30.6598 	 52.0628 	 107.282 	 
C 	 -30.5649 	 54.8478 	 106.816 	 
H 	 -30.8981 	 55.547 	 106.044 	 
H 	 -29.6699 	 54.5306 	 106.463 	 
C 	 -30.4242 	 55.6053 	 108.166 	 
H 	 -29.8328 	 54.9526 	 108.864 	 
H 	 -31.4304 	 55.7337 	 108.689 	 
C 	 -29.7185 	 56.9023 	 108.028 	 
H 	 -28.656 	 56.8127 	 108.078 	 
H 	 -30.0215 	 57.6605 	 108.794 	 
H 	 -29.9504 	 57.4221 	 107.075 	 
H 	 -36.2998 	 58.0836 	 107.7 	 
H 	 -32.9353 	 50.7733 	 107.487 	 
