34

S 	 -68.1439 	 38.2274 	 115.195 	 
C 	 -67.9116 	 36.7032 	 116.026 	 
C 	 -69.0779 	 35.9636 	 115.979 	 
C 	 -70.0148 	 36.4591 	 115.021 	 
C 	 -69.6862 	 37.7108 	 114.568 	 
H 	 -70.8875 	 35.967 	 114.716 	 
C 	 -69.367 	 34.8208 	 116.872 	 
H 	 -68.4454 	 34.3039 	 117.154 	 
H 	 -69.8202 	 34.1308 	 116.164 	 
C 	 -70.2849 	 35.1141 	 118.052 	 
H 	 -69.956 	 35.871 	 118.636 	 
H 	 -71.293 	 35.3487 	 117.786 	 
C 	 -70.5129 	 33.9154 	 118.989 	 
H 	 -69.5926 	 33.9138 	 119.494 	 
H 	 -71.2005 	 34.2106 	 119.754 	 
H 	 -70.6397 	 33.0891 	 118.374 	 
S 	 -71.4958 	 39.7042 	 114.136 	 
C 	 -72.3082 	 39.7567 	 112.578 	 
C 	 -71.6394 	 38.9842 	 111.647 	 
C 	 -70.5458 	 38.2044 	 112.182 	 
C 	 -70.3896 	 38.4524 	 113.537 	 
H 	 -71.9805 	 38.986 	 110.617 	 
C 	 -69.622 	 37.3487 	 111.263 	 
H 	 -70.2334 	 36.9201 	 110.513 	 
H 	 -69.2285 	 36.481 	 111.806 	 
C 	 -68.5351 	 38.2058 	 110.585 	 
H 	 -68.9655 	 39.093 	 110.174 	 
H 	 -68.2896 	 37.8267 	 109.666 	 
C 	 -67.4616 	 38.517 	 111.653 	 
H 	 -67.1829 	 37.7157 	 112.261 	 
H 	 -67.7221 	 39.3766 	 112.255 	 
H 	 -66.503 	 38.6352 	 111.134 	 
H 	 -67.102 	 36.5791 	 116.752 	 
H 	 -73.1294 	 40.354 	 112.246 	 
