34

S 	 -56.4049 	 59.4435 	 135.681 	 
C 	 -55.5928 	 59.6998 	 134.09 	 
C 	 -54.7864 	 60.8154 	 134.017 	 
C 	 -54.6009 	 61.3204 	 135.35 	 
C 	 -55.3518 	 60.6448 	 136.344 	 
H 	 -53.9878 	 62.1213 	 135.601 	 
C 	 -53.8767 	 61.2131 	 132.866 	 
H 	 -54.0238 	 62.2838 	 132.658 	 
H 	 -54.1944 	 60.6114 	 131.998 	 
C 	 -52.3859 	 60.8737 	 133.163 	 
H 	 -52.1719 	 61.3616 	 134.094 	 
H 	 -52.4197 	 59.8031 	 133.259 	 
C 	 -51.3595 	 61.3482 	 132.142 	 
H 	 -50.3891 	 61.2052 	 132.441 	 
H 	 -51.3811 	 60.7664 	 131.172 	 
H 	 -51.5511 	 62.3442 	 131.859 	 
S 	 -56.9803 	 62.0442 	 137.977 	 
C 	 -56.4824 	 62.4384 	 139.568 	 
C 	 -55.172 	 61.9672 	 139.876 	 
C 	 -54.5926 	 61.2657 	 138.729 	 
C 	 -55.4963 	 61.1635 	 137.677 	 
H 	 -54.6548 	 62.2622 	 140.797 	 
C 	 -53.2386 	 60.6305 	 138.759 	 
H 	 -52.7116 	 61.0285 	 139.698 	 
H 	 -52.682 	 61.0523 	 137.964 	 
C 	 -53.1616 	 59.0848 	 138.715 	 
H 	 -52.1072 	 58.8701 	 138.597 	 
H 	 -53.6289 	 58.7783 	 137.773 	 
C 	 -53.6376 	 58.3034 	 139.985 	 
H 	 -54.6941 	 58.5476 	 140.278 	 
H 	 -53.0246 	 58.4555 	 140.87 	 
H 	 -53.5504 	 57.1877 	 139.955 	 
H 	 -55.9603 	 59.167 	 133.224 	 
H 	 -57.1654 	 62.8758 	 140.367 	 
