34

S 	 -46.8218 	 6.73725 	 88.3238 	 
C 	 -46.4888 	 7.69093 	 89.7218 	 
C 	 -47.6575 	 8.15795 	 90.2053 	 
C 	 -48.821 	 7.74734 	 89.4437 	 
C 	 -48.5186 	 7.17759 	 88.219 	 
H 	 -49.8203 	 8.0241 	 89.7908 	 
C 	 -47.7895 	 8.89645 	 91.5124 	 
H 	 -47.057 	 8.56083 	 92.2214 	 
H 	 -48.7436 	 8.50456 	 92.0028 	 
C 	 -47.5609 	 10.3789 	 91.502 	 
H 	 -47.6308 	 10.6572 	 92.5717 	 
H 	 -46.5658 	 10.6405 	 90.9994 	 
C 	 -48.6625 	 11.0676 	 90.6703 	 
H 	 -48.7377 	 10.7556 	 89.6378 	 
H 	 -49.6132 	 10.9714 	 91.1793 	 
H 	 -48.469 	 12.1513 	 90.6015 	 
S 	 -48.7274 	 6.23722 	 85.6188 	 
C 	 -50.3698 	 6.02516 	 84.9375 	 
C 	 -51.3704 	 6.62859 	 85.7607 	 
C 	 -50.8526 	 7.0672 	 86.9658 	 
C 	 -49.4845 	 6.82112 	 87.1111 	 
H 	 -52.3747 	 6.57493 	 85.3878 	 
C 	 -51.7702 	 7.91043 	 87.8028 	 
H 	 -51.7076 	 7.78163 	 88.8544 	 
H 	 -52.7867 	 7.59423 	 87.6632 	 
C 	 -51.59 	 9.38977 	 87.505 	 
H 	 -51.6347 	 9.51457 	 86.4419 	 
H 	 -50.5282 	 9.65801 	 87.5489 	 
C 	 -52.5165 	 10.4196 	 88.2085 	 
H 	 -52.6474 	 10.2432 	 89.2559 	 
H 	 -53.5129 	 10.2852 	 87.8021 	 
H 	 -52.3205 	 11.503 	 88.0692 	 
H 	 -45.5134 	 7.92786 	 90.0689 	 
H 	 -50.6496 	 5.63909 	 83.9889 	 
