34

S 	 48.6788 	 25.2842 	 88.7695 	 
C 	 48.1062 	 25.4464 	 90.3884 	 
C 	 48.5931 	 24.4814 	 91.283 	 
C 	 49.4899 	 23.5989 	 90.597 	 
C 	 49.6036 	 23.7835 	 89.2321 	 
H 	 50.0176 	 22.7812 	 91.0851 	 
C 	 48.2487 	 24.4064 	 92.7122 	 
H 	 47.6583 	 23.4884 	 92.7531 	 
H 	 47.379 	 25.0542 	 92.9106 	 
C 	 49.3132 	 24.2644 	 93.8207 	 
H 	 48.724 	 23.7219 	 94.52 	 
H 	 50.1099 	 23.7145 	 93.4654 	 
C 	 49.7961 	 25.6606 	 94.3042 	 
H 	 50.3552 	 25.4926 	 95.2627 	 
H 	 50.5529 	 26.1004 	 93.6962 	 
H 	 49.02 	 26.4333 	 94.5392 	 
S 	 49.5728 	 22.5172 	 86.7769 	 
C 	 51.0431 	 22.0065 	 85.998 	 
C 	 52.0713 	 22.0643 	 86.8771 	 
C 	 51.7077 	 22.6816 	 88.2053 	 
C 	 50.3344 	 22.9976 	 88.248 	 
H 	 52.9956 	 21.8441 	 86.6034 	 
C 	 52.7432 	 22.9588 	 89.2762 	 
H 	 53.6001 	 22.4031 	 88.9944 	 
H 	 52.4452 	 22.6107 	 90.2247 	 
C 	 53.2172 	 24.4229 	 89.3316 	 
H 	 54.157 	 24.3759 	 89.8682 	 
H 	 52.5022 	 25.0011 	 89.9548 	 
C 	 53.5836 	 25.2108 	 88.0599 	 
H 	 53.8901 	 26.2272 	 88.361 	 
H 	 52.7788 	 25.221 	 87.347 	 
H 	 54.4571 	 24.7924 	 87.5711 	 
H 	 47.3995 	 26.1697 	 90.8079 	 
H 	 51.2012 	 21.59 	 85.0585 	 
