34

S 	 26.8233 	 33.2847 	 57.1012 	 
C 	 25.2438 	 32.7459 	 57.5587 	 
C 	 24.3936 	 32.8721 	 56.4715 	 
C 	 25.013 	 33.5509 	 55.3755 	 
C 	 26.3658 	 33.7996 	 55.5455 	 
H 	 24.4618 	 33.7347 	 54.4625 	 
C 	 22.8681 	 32.5879 	 56.5099 	 
H 	 22.3898 	 33.5373 	 56.3661 	 
H 	 22.465 	 32.3878 	 57.4911 	 
C 	 22.3408 	 31.5068 	 55.5863 	 
H 	 22.5673 	 31.6966 	 54.6129 	 
H 	 22.7063 	 30.481 	 55.8376 	 
C 	 20.8142 	 31.5473 	 55.5995 	 
H 	 20.5113 	 32.5879 	 55.4032 	 
H 	 20.3536 	 30.9696 	 54.8217 	 
H 	 20.4104 	 31.2129 	 56.5133 	 
S 	 28.6117 	 35.3245 	 55.149 	 
C 	 29.2541 	 35.3815 	 53.5527 	 
C 	 28.4909 	 34.7751 	 52.605 	 
C 	 27.3534 	 34.1083 	 53.1745 	 
C 	 27.3277 	 34.2788 	 54.5654 	 
H 	 28.707 	 34.9365 	 51.5254 	 
C 	 26.4295 	 33.3342 	 52.3617 	 
H 	 25.4732 	 33.7259 	 52.751 	 
H 	 26.6023 	 32.2522 	 52.555 	 
C 	 26.3539 	 33.6823 	 50.8903 	 
H 	 25.6024 	 32.9937 	 50.4386 	 
H 	 27.3547 	 33.3512 	 50.5781 	 
C 	 25.9415 	 35.0787 	 50.4442 	 
H 	 26.7675 	 35.7803 	 50.7128 	 
H 	 24.9239 	 35.3156 	 50.8 	 
H 	 25.7958 	 34.9869 	 49.3874 	 
H 	 24.8466 	 32.3711 	 58.4443 	 
H 	 30.031 	 36.074 	 53.3116 	 
