34

S 	 -94.3597 	 54.645 	 128.173 	 
C 	 -92.9097 	 53.673 	 127.822 	 
C 	 -93.277 	 52.5663 	 127.041 	 
C 	 -94.6515 	 52.5466 	 126.738 	 
C 	 -95.4232 	 53.6018 	 127.296 	 
H 	 -95.1608 	 51.7534 	 126.238 	 
C 	 -92.297 	 51.536 	 126.501 	 
H 	 -92.648 	 50.5099 	 126.675 	 
H 	 -91.4451 	 51.489 	 127.168 	 
C 	 -91.8192 	 51.6618 	 125.059 	 
H 	 -91.3133 	 52.5785 	 124.925 	 
H 	 -90.8538 	 51.1552 	 124.907 	 
C 	 -92.8415 	 51.3163 	 124.023 	 
H 	 -93.4556 	 50.4193 	 124.205 	 
H 	 -93.5902 	 52.0351 	 123.835 	 
H 	 -92.4103 	 51.1517 	 123.004 	 
S 	 -97.5384 	 54.2418 	 128.772 	 
C 	 -99.1459 	 54.0983 	 128.099 	 
C 	 -99.1319 	 53.7024 	 126.761 	 
C 	 -97.8086 	 53.5156 	 126.264 	 
C 	 -96.8649 	 53.7185 	 127.253 	 
H 	 -100.08 	 53.5318 	 126.302 	 
C 	 -97.4325 	 53.1694 	 124.873 	 
H 	 -96.353 	 53.1547 	 124.69 	 
H 	 -97.813 	 53.9963 	 124.248 	 
C 	 -98.063 	 51.887 	 124.363 	 
H 	 -99.1125 	 52.0011 	 124.492 	 
H 	 -97.7054 	 51.0612 	 124.959 	 
C 	 -97.7906 	 51.4647 	 122.897 	 
H 	 -96.7555 	 51.1971 	 122.878 	 
H 	 -98.003 	 52.2421 	 122.168 	 
H 	 -98.3633 	 50.5436 	 122.778 	 
H 	 -91.9327 	 54.082 	 127.944 	 
H 	 -100.056 	 54.1654 	 128.703 	 
