34

S 	 -33.1472 	 29.0777 	 42.8353 	 
C 	 -31.9408 	 27.7934 	 42.6551 	 
C 	 -30.7131 	 28.1852 	 43.0764 	 
C 	 -30.7602 	 29.4785 	 43.7014 	 
C 	 -32.0431 	 30.066 	 43.7858 	 
H 	 -29.8571 	 30.0048 	 44.0701 	 
C 	 -29.3432 	 27.4473 	 42.9119 	 
H 	 -29.3464 	 26.4231 	 43.3867 	 
H 	 -28.52 	 28.0136 	 43.3351 	 
C 	 -28.9202 	 27.3189 	 41.4136 	 
H 	 -29.6912 	 26.6938 	 40.9188 	 
H 	 -29.0859 	 28.3229 	 40.8754 	 
C 	 -27.5547 	 26.6574 	 41.192 	 
H 	 -27.5252 	 26.0465 	 40.2347 	 
H 	 -26.7531 	 27.4325 	 41.2918 	 
H 	 -27.3143 	 26.0294 	 42.043 	 
S 	 -33.59 	 31.5981 	 45.5852 	 
C 	 -33.5158 	 33.3321 	 45.2946 	 
C 	 -32.4977 	 33.7143 	 44.46 	 
C 	 -31.8767 	 32.5782 	 43.7874 	 
C 	 -32.3539 	 31.3826 	 44.3382 	 
H 	 -32.2237 	 34.689 	 44.2189 	 
C 	 -30.8065 	 32.8138 	 42.7641 	 
H 	 -31.2835 	 33.1185 	 41.7998 	 
H 	 -30.3649 	 31.8798 	 42.5592 	 
C 	 -29.6555 	 33.8469 	 43.1309 	 
H 	 -30.1228 	 34.7814 	 43.3129 	 
H 	 -29.0579 	 33.7573 	 42.1806 	 
C 	 -28.6662 	 33.6069 	 44.2018 	 
H 	 -28.2657 	 32.6756 	 43.9484 	 
H 	 -29.1027 	 33.6939 	 45.1775 	 
H 	 -27.9146 	 34.3532 	 44.2324 	 
H 	 -32.1144 	 26.8788 	 42.1569 	 
H 	 -34.2381 	 34.0193 	 45.7394 	 
