34

S 	 -12.3823 	 33.4617 	 35.0702 	 
C 	 -11.1248 	 34.3123 	 34.2032 	 
C 	 -11.5048 	 35.5195 	 33.7542 	 
C 	 -12.8983 	 35.7956 	 34.0987 	 
C 	 -13.5097 	 34.7808 	 34.8354 	 
H 	 -13.4825 	 36.7369 	 33.876 	 
C 	 -10.5872 	 36.5153 	 33.0535 	 
H 	 -9.62747 	 36.0721 	 33.2545 	 
H 	 -10.6004 	 37.405 	 33.6232 	 
C 	 -10.8952 	 36.839 	 31.5403 	 
H 	 -10.7079 	 35.9508 	 31.059 	 
H 	 -11.9691 	 37.0859 	 31.3885 	 
C 	 -10.0494 	 37.9291 	 30.9061 	 
H 	 -10.3621 	 37.9332 	 29.8438 	 
H 	 -10.2496 	 38.9624 	 31.2517 	 
H 	 -8.96011 	 37.7771 	 30.8717 	 
S 	 -15.3861 	 35.6723 	 36.8314 	 
C 	 -17.0254 	 35.0826 	 36.8095 	 
C 	 -17.113 	 34.1135 	 35.7752 	 
C 	 -15.9302 	 33.822 	 35.0805 	 
C 	 -14.9084 	 34.7104 	 35.4151 	 
H 	 -18.0087 	 33.5522 	 35.549 	 
C 	 -15.9136 	 32.8138 	 33.9386 	 
H 	 -16.6021 	 32.0408 	 34.2454 	 
H 	 -14.9682 	 32.3488 	 33.9637 	 
C 	 -16.1927 	 33.4441 	 32.6026 	 
H 	 -15.419 	 34.1281 	 32.319 	 
H 	 -17.0787 	 34.0909 	 32.5298 	 
C 	 -16.4411 	 32.3118 	 31.575 	 
H 	 -15.5545 	 31.6678 	 31.5492 	 
H 	 -16.5877 	 32.6255 	 30.5354 	 
H 	 -17.3214 	 31.7338 	 31.7623 	 
H 	 -10.043 	 33.9919 	 34.22 	 
H 	 -17.8256 	 35.5559 	 37.3269 	 
