34

S 	 -0.57332 	 -13.1901 	 70.4659 	 
C 	 0.33637 	 -14.0663 	 69.2313 	 
C 	 0.913297 	 -15.2451 	 69.7945 	 
C 	 0.730623 	 -15.3034 	 71.2278 	 
C 	 -0.129106 	 -14.3139 	 71.6555 	 
H 	 1.08154 	 -16.0468 	 71.9468 	 
C 	 1.61046 	 -16.448 	 69.0889 	 
H 	 0.74249 	 -17.0174 	 68.6033 	 
H 	 2.06722 	 -17.0284 	 69.857 	 
C 	 2.71765 	 -16.0994 	 68.0586 	 
H 	 2.27167 	 -15.4522 	 67.2793 	 
H 	 3.50617 	 -15.6265 	 68.6456 	 
C 	 3.14719 	 -17.4051 	 67.5191 	 
H 	 3.85616 	 -17.9238 	 68.2438 	 
H 	 2.33633 	 -18.0977 	 67.2743 	 
H 	 3.89033 	 -17.2223 	 66.7599 	 
S 	 -2.34909 	 -13.7926 	 73.196 	 
C 	 -2.19638 	 -13.4574 	 74.8701 	 
C 	 -1.00151 	 -13.8129 	 75.329 	 
C 	 -0.0525502 	 -14.1697 	 74.3029 	 
C 	 -0.652767 	 -14.1598 	 73.044 	 
H 	 -0.937749 	 -13.8822 	 76.3531 	 
C 	 1.46032 	 -14.3822 	 74.596 	 
H 	 1.9833 	 -14.5636 	 73.6053 	 
H 	 1.47607 	 -15.2833 	 75.1482 	 
C 	 2.14854 	 -13.3158 	 75.453 	 
H 	 1.60547 	 -13.2698 	 76.3584 	 
H 	 2.05648 	 -12.3061 	 74.9904 	 
C 	 3.57919 	 -13.6037 	 75.8023 	 
H 	 4.27768 	 -13.6502 	 74.9745 	 
H 	 3.73138 	 -14.4674 	 76.491 	 
H 	 3.89578 	 -12.7799 	 76.4138 	 
H 	 0.571618 	 -13.7855 	 68.2277 	 
H 	 -2.97216 	 -13.1336 	 75.5464 	 
