34

S 	 8.10591 	 -17.9161 	 57.5519 	 
C 	 8.56722 	 -17.032 	 58.9455 	 
C 	 9.34698 	 -16.0125 	 58.6068 	 
C 	 9.65201 	 -15.8594 	 57.2563 	 
C 	 9.14728 	 -16.8801 	 56.4912 	 
H 	 10.1784 	 -15.0263 	 56.7462 	 
C 	 9.76134 	 -15.007 	 59.6407 	 
H 	 8.95285 	 -14.7375 	 60.3139 	 
H 	 9.97125 	 -14.0342 	 59.1834 	 
C 	 10.9421 	 -15.395 	 60.5631 	 
H 	 11.0883 	 -14.6533 	 61.4113 	 
H 	 10.689 	 -16.3383 	 61.0308 	 
C 	 12.2176 	 -15.6532 	 59.7084 	 
H 	 13.0629 	 -15.9717 	 60.27 	 
H 	 12.1593 	 -16.4918 	 58.999 	 
H 	 12.4875 	 -14.7814 	 59.166 	 
S 	 10.9662 	 -17.6674 	 54.5858 	 
C 	 10.5188 	 -17.6787 	 52.9904 	 
C 	 9.16399 	 -17.3177 	 52.8076 	 
C 	 8.51033 	 -16.9352 	 54.0566 	 
C 	 9.40916 	 -17.0698 	 55.0863 	 
H 	 8.78287 	 -17.4275 	 51.8641 	 
C 	 6.98201 	 -16.5039 	 54.182 	 
H 	 6.92123 	 -15.6084 	 53.5101 	 
H 	 6.77121 	 -16.1397 	 55.1669 	 
C 	 6.0367 	 -17.6423 	 53.8032 	 
H 	 6.1871 	 -18.3689 	 54.5564 	 
H 	 6.35471 	 -18.0186 	 52.7869 	 
C 	 4.55456 	 -17.2905 	 53.8015 	 
H 	 4.20868 	 -16.9593 	 54.7543 	 
H 	 3.94022 	 -18.1986 	 53.5617 	 
H 	 4.3337 	 -16.5134 	 52.9971 	 
H 	 8.21915 	 -17.3603 	 59.9427 	 
H 	 11.2232 	 -17.9527 	 52.2015 	 
