34

S 	 7.76003 	 -7.84875 	 63.1824 	 
C 	 6.75712 	 -6.36399 	 63.0066 	 
C 	 7.58374 	 -5.26144 	 62.9757 	 
C 	 8.96402 	 -5.58002 	 63.2418 	 
C 	 9.20586 	 -6.95634 	 63.3224 	 
H 	 9.79078 	 -4.93891 	 63.1603 	 
C 	 7.15963 	 -3.82248 	 62.7669 	 
H 	 6.22239 	 -3.74463 	 62.192 	 
H 	 7.76531 	 -3.34544 	 62.0229 	 
C 	 6.9954 	 -2.90102 	 64.0313 	 
H 	 6.39426 	 -2.07491 	 63.8294 	 
H 	 6.43958 	 -3.43469 	 64.7877 	 
C 	 8.29101 	 -2.38525 	 64.6385 	 
H 	 9.10394 	 -3.08088 	 64.5121 	 
H 	 8.5913 	 -1.43294 	 64.1174 	 
H 	 8.1755 	 -2.14554 	 65.7393 	 
S 	 11.3324 	 -8.22602 	 62.246 	 
C 	 12.6558 	 -8.71076 	 63.2742 	 
C 	 12.3113 	 -8.46672 	 64.5561 	 
C 	 11.0554 	 -7.90722 	 64.7515 	 
C 	 10.4648 	 -7.57651 	 63.5918 	 
H 	 13.1047 	 -8.81382 	 65.2645 	 
C 	 10.5058 	 -7.64758 	 66.1463 	 
H 	 9.62709 	 -7.01418 	 66.2703 	 
H 	 11.4013 	 -7.13452 	 66.6141 	 
C 	 10.1212 	 -8.95522 	 66.9005 	 
H 	 10.9426 	 -9.67398 	 66.8733 	 
H 	 9.30563 	 -9.44978 	 66.3996 	 
C 	 9.82263 	 -8.54996 	 68.3233 	 
H 	 10.4404 	 -7.79247 	 68.827 	 
H 	 9.89668 	 -9.44889 	 68.9591 	 
H 	 8.77917 	 -8.20295 	 68.4923 	 
H 	 5.6596 	 -6.2705 	 62.86 	 
H 	 13.6805 	 -8.91625 	 62.9261 	 
