34

S 	 6.20991 	 -15.3989 	 87.4119 	 
C 	 4.86992 	 -15.5125 	 88.4767 	 
C 	 4.86633 	 -16.6999 	 89.1641 	 
C 	 5.8614 	 -17.5738 	 88.7358 	 
C 	 6.69293 	 -17.0377 	 87.7849 	 
H 	 6.07621 	 -18.5102 	 89.1307 	 
C 	 3.84539 	 -17.096 	 90.1982 	 
H 	 3.97887 	 -16.4744 	 91.0005 	 
H 	 3.99947 	 -18.0624 	 90.4833 	 
C 	 2.37763 	 -17.1093 	 89.7172 	 
H 	 2.2016 	 -16.1819 	 89.1838 	 
H 	 2.27265 	 -17.9114 	 89.0047 	 
C 	 1.38121 	 -17.1192 	 90.8827 	 
H 	 1.52346 	 -18.0299 	 91.4881 	 
H 	 1.41253 	 -16.2337 	 91.4924 	 
H 	 0.448346 	 -17.1724 	 90.3905 	 
S 	 9.40176 	 -16.948 	 87.1655 	 
C 	 10.1521 	 -18.4445 	 86.5858 	 
C 	 9.22422 	 -19.3423 	 86.1407 	 
C 	 7.92822 	 -18.8623 	 86.3972 	 
C 	 7.82024 	 -17.6675 	 87.1363 	 
H 	 9.49317 	 -20.2204 	 85.5192 	 
C 	 6.77098 	 -19.7067 	 85.8961 	 
H 	 6.05642 	 -19.8288 	 86.6907 	 
H 	 7.0959 	 -20.7087 	 85.5371 	 
C 	 6.10401 	 -19.0138 	 84.7015 	 
H 	 6.82493 	 -19.133 	 83.8486 	 
H 	 6.06214 	 -17.9885 	 84.8819 	 
C 	 4.76862 	 -19.623 	 84.2877 	 
H 	 4.9251 	 -20.6537 	 84.2786 	 
H 	 4.48649 	 -19.2975 	 83.2448 	 
H 	 3.9731 	 -19.415 	 85.0308 	 
H 	 4.20902 	 -14.7341 	 88.7912 	 
H 	 11.2077 	 -18.5199 	 86.4076 	 
