34

S 	 -11.4186 	 -9.15632 	 77.7477 	 
C 	 -10.9621 	 -10.8544 	 77.3427 	 
C 	 -11.033 	 -11.1365 	 76.014 	 
C 	 -11.442 	 -9.95958 	 75.2557 	 
C 	 -11.5072 	 -8.79867 	 76.0207 	 
H 	 -11.6754 	 -9.91511 	 74.1648 	 
C 	 -10.6328 	 -12.4554 	 75.425 	 
H 	 -10.9965 	 -12.5874 	 74.4001 	 
H 	 -11.1421 	 -13.1611 	 76.0843 	 
C 	 -9.1276 	 -12.8752 	 75.4705 	 
H 	 -8.52892 	 -12.219 	 74.7732 	 
H 	 -8.78881 	 -12.7733 	 76.4741 	 
C 	 -8.99905 	 -14.3524 	 75.0872 	 
H 	 -9.00861 	 -14.3588 	 73.9797 	 
H 	 -8.0675 	 -14.8289 	 75.4062 	 
H 	 -9.78486 	 -14.9524 	 75.5266 	 
S 	 -12.6434 	 -6.46395 	 76.6189 	 
C 	 -13.0165 	 -5.31924 	 75.4357 	 
C 	 -12.471 	 -5.66439 	 74.2246 	 
C 	 -11.7071 	 -6.8449 	 74.1954 	 
C 	 -11.8673 	 -7.48011 	 75.4785 	 
H 	 -12.5605 	 -4.99742 	 73.353 	 
C 	 -11.1991 	 -7.3722 	 72.9009 	 
H 	 -11.5393 	 -6.71541 	 72.1705 	 
H 	 -11.7627 	 -8.19179 	 72.6016 	 
C 	 -9.66589 	 -7.53743 	 72.8562 	 
H 	 -9.21088 	 -8.14673 	 73.7577 	 
H 	 -9.11251 	 -6.53074 	 72.8925 	 
C 	 -9.21702 	 -8.32417 	 71.6113 	 
H 	 -10.0878 	 -8.35374 	 70.9215 	 
H 	 -8.99977 	 -9.31978 	 71.7309 	 
H 	 -8.48513 	 -7.76722 	 71.0719 	 
H 	 -10.6352 	 -11.5138 	 78.1042 	 
H 	 -13.5145 	 -4.38404 	 75.6243 	 
