34

S 	 -62.5695 	 48.0771 	 124.002 	 
C 	 -63.037 	 49.3821 	 125.03 	 
C 	 -64.3674 	 49.8464 	 124.942 	 
C 	 -65.0378 	 48.9953 	 124.052 	 
C 	 -64.2814 	 47.959 	 123.569 	 
H 	 -66.0701 	 48.9734 	 123.791 	 
C 	 -64.9575 	 51.0909 	 125.516 	 
H 	 -64.8476 	 50.9792 	 126.574 	 
H 	 -66.0305 	 51.0521 	 125.31 	 
C 	 -64.3082 	 52.3744 	 124.951 	 
H 	 -63.1939 	 52.3117 	 125.127 	 
H 	 -64.4682 	 52.3321 	 123.836 	 
C 	 -64.9858 	 53.6341 	 125.491 	 
H 	 -64.8284 	 53.8362 	 126.538 	 
H 	 -64.7081 	 54.5015 	 124.949 	 
H 	 -66.0549 	 53.6577 	 125.419 	 
S 	 -63.5377 	 46.2183 	 121.592 	 
C 	 -64.7198 	 45.2746 	 120.856 	 
C 	 -65.8726 	 45.2282 	 121.557 	 
C 	 -65.857 	 46.0505 	 122.734 	 
C 	 -64.6968 	 46.7527 	 122.818 	 
H 	 -66.6624 	 44.6189 	 121.23 	 
C 	 -67.0623 	 46.1862 	 123.579 	 
H 	 -66.8709 	 46.8812 	 124.422 	 
H 	 -67.2391 	 45.2204 	 123.918 	 
C 	 -68.3364 	 46.7734 	 122.803 	 
H 	 -68.4965 	 46.0739 	 121.94 	 
H 	 -68.1242 	 47.6688 	 122.269 	 
C 	 -69.6004 	 46.9166 	 123.603 	 
H 	 -70.2542 	 47.7495 	 123.27 	 
H 	 -69.3884 	 47.1365 	 124.621 	 
H 	 -70.1855 	 45.9588 	 123.642 	 
H 	 -62.1821 	 49.986 	 125.395 	 
H 	 -64.3602 	 44.7063 	 120.028 	 
