34

S 	 11.9834 	 -6.90298 	 89.2702 	 
C 	 10.5507 	 -6.96059 	 90.215 	 
C 	 9.57004 	 -7.63098 	 89.5373 	 
C 	 9.95245 	 -8.12072 	 88.2894 	 
C 	 11.1678 	 -7.56893 	 87.8678 	 
H 	 9.37753 	 -8.67587 	 87.5645 	 
C 	 8.21704 	 -7.92038 	 90.21 	 
H 	 7.69108 	 -8.64636 	 89.6322 	 
H 	 7.67445 	 -6.94714 	 90.0881 	 
C 	 8.37101 	 -8.35039 	 91.7096 	 
H 	 9.08273 	 -9.20061 	 91.7096 	 
H 	 8.90415 	 -7.65711 	 92.2936 	 
C 	 6.99762 	 -8.7439 	 92.3174 	 
H 	 6.28495 	 -7.92691 	 92.4661 	 
H 	 6.41183 	 -9.43079 	 91.6689 	 
H 	 7.1275 	 -9.16402 	 93.3163 	 
S 	 13.5037 	 -8.147 	 86.5235 	 
C 	 13.523 	 -8.23117 	 84.7431 	 
C 	 12.3464 	 -7.81182 	 84.2682 	 
C 	 11.3086 	 -7.46793 	 85.2436 	 
C 	 11.7702 	 -7.67299 	 86.5683 	 
H 	 12.3144 	 -7.67992 	 83.2301 	 
C 	 10.0214 	 -6.83475 	 84.7932 	 
H 	 9.0737 	 -7.30287 	 85.045 	 
H 	 10.0662 	 -6.80878 	 83.6477 	 
C 	 9.86848 	 -5.35189 	 85.1288 	 
H 	 10.6619 	 -4.75818 	 84.7251 	 
H 	 9.96728 	 -5.20734 	 86.2514 	 
C 	 8.48642 	 -4.83467 	 84.7588 	 
H 	 8.35476 	 -3.85961 	 85.1209 	 
H 	 7.76252 	 -5.49005 	 85.2059 	 
H 	 8.29598 	 -4.74682 	 83.6497 	 
H 	 10.3203 	 -6.53324 	 91.1312 	 
H 	 14.3576 	 -8.45526 	 84.1307 	 
