34

S 	 -108.794 	 38.1409 	 128.967 	 
C 	 -107.131 	 38.0596 	 129.558 	 
C 	 -106.749 	 39.119 	 130.311 	 
C 	 -107.857 	 39.982 	 130.468 	 
C 	 -109.004 	 39.6619 	 129.77 	 
H 	 -107.747 	 40.9146 	 130.933 	 
C 	 -105.41 	 39.4294 	 130.875 	 
H 	 -104.751 	 39.3883 	 129.979 	 
H 	 -105.197 	 38.577 	 131.483 	 
C 	 -105.218 	 40.648 	 131.674 	 
H 	 -104.123 	 40.9507 	 131.651 	 
H 	 -105.733 	 41.6249 	 131.286 	 
C 	 -105.661 	 40.4048 	 133.147 	 
H 	 -105.433 	 41.2923 	 133.797 	 
H 	 -106.737 	 40.2751 	 133.194 	 
H 	 -105.182 	 39.5631 	 133.662 	 
S 	 -110.672 	 40.6723 	 127.75 	 
C 	 -111.811 	 41.9355 	 128.13 	 
C 	 -111.881 	 42.1355 	 129.491 	 
C 	 -110.888 	 41.4315 	 130.247 	 
C 	 -110.078 	 40.6474 	 129.481 	 
H 	 -112.587 	 42.8549 	 129.952 	 
C 	 -110.877 	 41.5374 	 131.77 	 
H 	 -110.2 	 40.8815 	 132.182 	 
H 	 -111.736 	 41.2296 	 132.196 	 
C 	 -110.452 	 42.8723 	 132.295 	 
H 	 -110.916 	 43.7576 	 131.77 	 
H 	 -109.427 	 43.0658 	 132.102 	 
C 	 -110.677 	 43.0367 	 133.828 	 
H 	 -110.52 	 44.124 	 134.039 	 
H 	 -109.943 	 42.5423 	 134.442 	 
H 	 -111.714 	 42.7696 	 134.092 	 
H 	 -106.393 	 37.2504 	 129.363 	 
H 	 -112.331 	 42.5341 	 127.396 	 
