34

S 	 -90.1492 	 41.8299 	 113.665 	 
C 	 -89.3167 	 43.253 	 113.065 	 
C 	 -90.0195 	 44.4107 	 113.305 	 
C 	 -91.1438 	 44.174 	 114.201 	 
C 	 -91.4042 	 42.8216 	 114.426 	 
H 	 -91.8248 	 44.8986 	 114.532 	 
C 	 -89.566 	 45.8411 	 112.92 	 
H 	 -89.8682 	 46.589 	 113.677 	 
H 	 -90.1068 	 45.9764 	 111.959 	 
C 	 -88.0629 	 45.9363 	 112.86 	 
H 	 -87.5969 	 45.2383 	 112.256 	 
H 	 -87.9367 	 46.9328 	 112.418 	 
C 	 -87.3738 	 45.8748 	 114.185 	 
H 	 -86.3374 	 46.1369 	 113.964 	 
H 	 -87.6597 	 46.6116 	 114.992 	 
H 	 -87.3017 	 44.867 	 114.559 	 
S 	 -93.2874 	 40.9468 	 114.03 	 
C 	 -94.6452 	 40.7287 	 115.177 	 
C 	 -94.4842 	 41.5506 	 116.244 	 
C 	 -93.2887 	 42.3341 	 116.214 	 
C 	 -92.5842 	 42.1658 	 115.051 	 
H 	 -95.2809 	 41.595 	 117.003 	 
C 	 -92.9322 	 43.3259 	 117.304 	 
H 	 -91.8515 	 43.474 	 117.094 	 
H 	 -92.9143 	 42.7316 	 118.261 	 
C 	 -93.8026 	 44.5621 	 117.509 	 
H 	 -94.7065 	 44.3299 	 118.138 	 
H 	 -94.1946 	 44.926 	 116.532 	 
C 	 -93.0079 	 45.7358 	 118.244 	 
H 	 -92.4205 	 45.2908 	 119.134 	 
H 	 -93.6296 	 46.5457 	 118.57 	 
H 	 -92.3139 	 46.165 	 117.59 	 
H 	 -88.3122 	 43.3532 	 112.552 	 
H 	 -95.4787 	 40.0113 	 114.996 	 
