34

S 	 38.133 	 28.6715 	 96.4347 	 
C 	 38.1885 	 29.7571 	 95.0727 	 
C 	 38.7796 	 29.106 	 93.9939 	 
C 	 39.1256 	 27.752 	 94.281 	 
C 	 38.9467 	 27.3403 	 95.5615 	 
H 	 39.5276 	 26.994 	 93.6331 	 
C 	 39.1205 	 29.7974 	 92.6916 	 
H 	 40.1534 	 30.0705 	 92.7633 	 
H 	 38.6359 	 30.7474 	 92.6771 	 
C 	 38.6205 	 29.1719 	 91.4049 	 
H 	 37.5281 	 29.1433 	 91.4264 	 
H 	 38.9382 	 29.8393 	 90.6017 	 
C 	 39.2742 	 27.8352 	 90.9768 	 
H 	 38.7626 	 26.9732 	 91.3047 	 
H 	 39.1888 	 27.7121 	 89.9119 	 
H 	 40.3687 	 27.7662 	 91.3162 	 
S 	 38.0163 	 25.5447 	 97.3828 	 
C 	 38.7158 	 23.9453 	 97.3737 	 
C 	 39.8108 	 23.8405 	 96.4814 	 
C 	 40.0147 	 24.9617 	 95.7036 	 
C 	 39.1698 	 25.9965 	 96.1117 	 
H 	 40.2624 	 22.8165 	 96.4158 	 
C 	 41.1002 	 25.0201 	 94.6926 	 
H 	 42.0128 	 24.4139 	 95.048 	 
H 	 41.4742 	 26.024 	 94.6326 	 
C 	 40.7889 	 24.528 	 93.2516 	 
H 	 39.9131 	 24.9428 	 92.8471 	 
H 	 40.5633 	 23.4219 	 93.4567 	 
C 	 41.8761 	 24.859 	 92.2184 	 
H 	 41.7058 	 24.3878 	 91.2584 	 
H 	 42.7385 	 24.6581 	 92.7019 	 
H 	 41.8483 	 25.94 	 92.0829 	 
H 	 37.873 	 30.7365 	 95.1266 	 
H 	 38.3985 	 23.0957 	 97.9859 	 
