34

S 	 -13.3846 	 48.6846 	 34.9363 	 
C 	 -12.0312 	 47.7733 	 35.4527 	 
C 	 -10.8453 	 48.4533 	 35.2795 	 
C 	 -11.0778 	 49.7716 	 34.8977 	 
C 	 -12.4073 	 50.138 	 34.9138 	 
H 	 -10.3932 	 50.577 	 34.5468 	 
C 	 -9.41261 	 47.951 	 35.4258 	 
H 	 -8.76569 	 48.5007 	 34.6837 	 
H 	 -9.3798 	 46.9493 	 35.2014 	 
C 	 -8.9596 	 48.0392 	 36.8579 	 
H 	 -9.18913 	 49.0061 	 37.2874 	 
H 	 -9.50971 	 47.3194 	 37.3272 	 
C 	 -7.33891 	 47.995 	 36.7954 	 
H 	 -6.88275 	 48.7437 	 36.0886 	 
H 	 -6.93886 	 48.0666 	 37.8005 	 
H 	 -7.08993 	 46.989 	 36.5237 	 
S 	 -13.9528 	 51.2969 	 32.9479 	 
C 	 -14.237 	 52.9986 	 32.9778 	 
C 	 -13.5436 	 53.6521 	 33.9675 	 
C 	 -12.7173 	 52.7788 	 34.7455 	 
C 	 -12.9055 	 51.4007 	 34.3997 	 
H 	 -13.6785 	 54.7344 	 34.1115 	 
C 	 -11.9218 	 53.1929 	 35.9204 	 
H 	 -12.277 	 54.2225 	 36.1736 	 
H 	 -10.9103 	 53.2502 	 35.6968 	 
C 	 -11.8998 	 52.4371 	 37.2256 	 
H 	 -11.3803 	 53.0526 	 37.9673 	 
H 	 -11.3349 	 51.5249 	 37.1262 	 
C 	 -13.3188 	 52.1222 	 37.8054 	 
H 	 -13.7497 	 53.0526 	 38.2802 	 
H 	 -13.2225 	 51.4534 	 38.685 	 
H 	 -13.9657 	 51.5553 	 37.1313 	 
H 	 -11.9955 	 46.776 	 35.5992 	 
H 	 -14.6799 	 53.4888 	 32.1407 	 
