34

S 	 -56.1321 	 52.9826 	 138.134 	 
C 	 -56.0384 	 54.6792 	 137.969 	 
C 	 -57.2696 	 55.2517 	 137.871 	 
C 	 -58.315 	 54.2907 	 138.266 	 
C 	 -57.8795 	 53.0705 	 138.596 	 
H 	 -59.3408 	 54.5398 	 138.328 	 
C 	 -57.5423 	 56.7509 	 137.818 	 
H 	 -57.687 	 57.1963 	 138.854 	 
H 	 -58.5119 	 56.9117 	 137.32 	 
C 	 -56.422 	 57.6136 	 137.135 	 
H 	 -55.4959 	 57.4535 	 137.643 	 
H 	 -56.4208 	 57.3304 	 136.053 	 
C 	 -56.7202 	 59.0953 	 137.249 	 
H 	 -56.7792 	 59.3143 	 138.345 	 
H 	 -55.8271 	 59.6372 	 136.801 	 
H 	 -57.5832 	 59.4295 	 136.647 	 
S 	 -58.3057 	 51.0856 	 140.583 	 
C 	 -59.681 	 50.0158 	 140.269 	 
C 	 -60.3093 	 50.2532 	 139.061 	 
C 	 -59.7735 	 51.3355 	 138.327 	 
C 	 -58.6332 	 51.834 	 138.981 	 
H 	 -61.1399 	 49.6706 	 138.751 	 
C 	 -60.3645 	 51.7929 	 136.94 	 
H 	 -60.6052 	 50.9703 	 136.32 	 
H 	 -59.6056 	 52.2523 	 136.443 	 
C 	 -61.5746 	 52.7079 	 136.953 	 
H 	 -61.6752 	 53.1373 	 136.001 	 
H 	 -61.4029 	 53.5153 	 137.657 	 
C 	 -62.9696 	 52.1122 	 137.334 	 
H 	 -63.2471 	 51.2742 	 136.717 	 
H 	 -63.864 	 52.808 	 137.373 	 
H 	 -62.9534 	 51.7205 	 138.347 	 
H 	 -55.0825 	 55.2387 	 137.898 	 
H 	 -59.924 	 49.1101 	 140.772 	 
