34

S 	 -8.80886 	 76.2525 	 45.4807 	 
C 	 -8.20833 	 77.6805 	 46.3886 	 
C 	 -7.04441 	 77.4412 	 47.0586 	 
C 	 -6.71252 	 76.0144 	 46.9862 	 
C 	 -7.58649 	 75.2714 	 46.263 	 
H 	 -5.79519 	 75.6765 	 47.5265 	 
C 	 -6.20139 	 78.4539 	 47.7694 	 
H 	 -6.05461 	 79.297 	 47.0473 	 
H 	 -5.20928 	 77.9754 	 47.9254 	 
C 	 -6.87904 	 78.9794 	 49.0674 	 
H 	 -7.77855 	 79.4402 	 48.9186 	 
H 	 -7.12538 	 78.1533 	 49.7062 	 
C 	 -6.06612 	 80.074 	 49.7963 	 
H 	 -5.83797 	 80.9542 	 49.1756 	 
H 	 -6.68906 	 80.5091 	 50.5558 	 
H 	 -5.16463 	 79.7055 	 50.2235 	 
S 	 -7.42194 	 72.5347 	 46.9281 	 
C 	 -7.09882 	 71.4235 	 45.7123 	 
C 	 -6.72159 	 72.0322 	 44.538 	 
C 	 -6.93214 	 73.4679 	 44.5457 	 
C 	 -7.35902 	 73.9151 	 45.798 	 
H 	 -6.33743 	 71.3951 	 43.7521 	 
C 	 -6.41743 	 74.3303 	 43.4137 	 
H 	 -5.89761 	 75.0959 	 43.9298 	 
H 	 -7.24878 	 74.926 	 43.0838 	 
C 	 -5.62097 	 73.6949 	 42.23 	 
H 	 -6.24578 	 72.8675 	 41.8459 	 
H 	 -4.68793 	 73.2693 	 42.5527 	 
C 	 -5.4128 	 74.521 	 40.9437 	 
H 	 -5.02867 	 73.8944 	 40.1341 	 
H 	 -4.93848 	 75.5142 	 40.9768 	 
H 	 -6.4936 	 74.769 	 40.6803 	 
H 	 -8.23575 	 78.7291 	 45.9975 	 
H 	 -6.94369 	 70.3737 	 45.9667 	 
