34

S 	 -12.6979 	 38.0715 	 55.1659 	 
C 	 -12.0413 	 39.5848 	 54.5382 	 
C 	 -12.4709 	 39.913 	 53.2833 	 
C 	 -13.5064 	 39.0194 	 52.8484 	 
C 	 -13.7888 	 37.9501 	 53.7446 	 
H 	 -14.01 	 39.0294 	 51.873 	 
C 	 -11.9005 	 40.9781 	 52.4056 	 
H 	 -11.8725 	 40.5621 	 51.3274 	 
H 	 -10.8232 	 41.1509 	 52.7519 	 
C 	 -12.6835 	 42.237 	 52.1251 	 
H 	 -12.1663 	 42.6883 	 51.2793 	 
H 	 -13.7178 	 42.0558 	 51.8047 	 
C 	 -12.8182 	 43.344 	 53.1534 	 
H 	 -13.3908 	 43.0336 	 54.0685 	 
H 	 -11.8385 	 43.6835 	 53.6658 	 
H 	 -13.2248 	 44.235 	 52.619 	 
S 	 -15.4708 	 36.2526 	 55.0733 	 
C 	 -16.1855 	 34.8871 	 54.1886 	 
C 	 -16.0022 	 35.0185 	 52.8263 	 
C 	 -15.1206 	 36.1342 	 52.5251 	 
C 	 -14.6633 	 36.8313 	 53.6162 	 
H 	 -16.4422 	 34.3066 	 52.1387 	 
C 	 -14.782 	 36.4053 	 51.0927 	 
H 	 -14.7714 	 35.4613 	 50.6724 	 
H 	 -13.8081 	 36.7955 	 51.0305 	 
C 	 -15.6814 	 37.3718 	 50.3582 	 
H 	 -15.774 	 38.2259 	 50.9955 	 
H 	 -16.6895 	 37.0221 	 50.2604 	 
C 	 -15.1863 	 37.8294 	 49.0021 	 
H 	 -15.1593 	 37.1083 	 48.2322 	 
H 	 -14.192 	 38.2812 	 48.9412 	 
H 	 -15.9367 	 38.6114 	 48.6639 	 
H 	 -11.2093 	 40.1434 	 54.928 	 
H 	 -16.6685 	 34.0118 	 54.6227 	 
