34

S 	 -11.6833 	 55.6278 	 58.9001 	 
C 	 -12.1934 	 53.9849 	 58.9918 	 
C 	 -12.6766 	 53.5015 	 60.2095 	 
C 	 -12.766 	 54.5697 	 61.1087 	 
C 	 -12.4248 	 55.807 	 60.5252 	 
H 	 -13.2144 	 54.5938 	 62.0803 	 
C 	 -12.9747 	 51.9693 	 60.4323 	 
H 	 -12.7436 	 51.6544 	 61.4311 	 
H 	 -12.5019 	 51.4019 	 59.6185 	 
C 	 -14.4476 	 51.5768 	 60.3816 	 
H 	 -14.9794 	 51.8476 	 61.2537 	 
H 	 -14.9534 	 52.0963 	 59.6014 	 
C 	 -14.6833 	 50.1434 	 60.0661 	 
H 	 -15.6359 	 49.7899 	 60.4489 	 
H 	 -14.5778 	 49.9519 	 58.9733 	 
H 	 -13.9654 	 49.554 	 60.6213 	 
S 	 -10.9986 	 58.0099 	 61.0799 	 
C 	 -11.6737 	 59.2619 	 61.9859 	 
C 	 -12.7859 	 58.8728 	 62.6874 	 
C 	 -13.2634 	 57.6142 	 62.1918 	 
C 	 -12.4746 	 57.0754 	 61.2026 	 
H 	 -13.1946 	 59.5212 	 63.3858 	 
C 	 -14.5102 	 57.0002 	 62.7748 	 
H 	 -14.117 	 56.2196 	 63.4236 	 
H 	 -15.0506 	 56.4726 	 61.9205 	 
C 	 -15.5267 	 57.8965 	 63.5242 	 
H 	 -15.7777 	 58.7427 	 62.8884 	 
H 	 -15.1241 	 58.265 	 64.4949 	 
C 	 -16.8793 	 57.2172 	 63.8679 	 
H 	 -16.8569 	 56.5159 	 64.7547 	 
H 	 -17.3891 	 56.8014 	 62.9872 	 
H 	 -17.5182 	 57.9501 	 64.3133 	 
H 	 -12.0474 	 53.2123 	 58.1865 	 
H 	 -11.0568 	 60.0662 	 62.3324 	 
