34

S 	 54.3509 	 12.9398 	 77.0632 	 
C 	 55.4674 	 13.5018 	 75.8297 	 
C 	 56.759 	 13.3039 	 76.1766 	 
C 	 56.875 	 12.7017 	 77.4484 	 
C 	 55.6715 	 12.428 	 78.0341 	 
H 	 57.7947 	 12.4269 	 77.8414 	 
C 	 58.0161 	 13.6219 	 75.3374 	 
H 	 57.8169 	 14.5191 	 74.8176 	 
H 	 57.9963 	 12.8252 	 74.551 	 
C 	 59.4213 	 13.5922 	 76.0499 	 
H 	 59.4883 	 12.6649 	 76.4993 	 
H 	 60.2403 	 13.6027 	 75.3301 	 
C 	 59.5619 	 14.7778 	 77.0019 	 
H 	 59.2201 	 15.7243 	 76.6324 	 
H 	 58.9468 	 14.5988 	 77.9178 	 
H 	 60.6486 	 14.7959 	 77.2708 	 
S 	 54.5126 	 12.4082 	 80.5085 	 
C 	 55.0482 	 11.225 	 81.6454 	 
C 	 55.7433 	 10.2413 	 81.0749 	 
C 	 56.0854 	 10.4686 	 79.7047 	 
C 	 55.4956 	 11.6209 	 79.2511 	 
H 	 56.1346 	 9.47889 	 81.7049 	 
C 	 56.9009 	 9.51351 	 78.9372 	 
H 	 57.4355 	 8.87096 	 79.6135 	 
H 	 57.737 	 9.96824 	 78.3465 	 
C 	 56.0451 	 8.52052 	 78.1065 	 
H 	 55.2021 	 8.3135 	 78.7014 	 
H 	 56.5719 	 7.5975 	 77.907 	 
C 	 55.5328 	 9.08579 	 76.7311 	 
H 	 56.4293 	 9.52352 	 76.2226 	 
H 	 54.7039 	 9.82372 	 76.785 	 
H 	 55.1647 	 8.29962 	 76.0671 	 
H 	 55.1413 	 13.9926 	 74.8823 	 
H 	 54.6391 	 11.2365 	 82.7064 	 
