34

S 	 49.6284 	 6.35189 	 82.8553 	 
C 	 49.1016 	 6.84971 	 84.4329 	 
C 	 48.4627 	 5.81241 	 85.046 	 
C 	 48.7923 	 4.52681 	 84.4682 	 
C 	 49.345 	 4.70045 	 83.2505 	 
H 	 48.5044 	 3.54759 	 84.7832 	 
C 	 47.658 	 5.89471 	 86.3355 	 
H 	 46.839 	 5.1629 	 86.2205 	 
H 	 47.2203 	 6.92184 	 86.3638 	 
C 	 48.4529 	 5.57256 	 87.6 	 
H 	 47.882 	 5.79842 	 88.4499 	 
H 	 48.6371 	 4.48072 	 87.5637 	 
C 	 49.8291 	 6.25711 	 87.7543 	 
H 	 49.8344 	 7.2974 	 87.7811 	 
H 	 50.3411 	 5.89235 	 88.7158 	 
H 	 50.5464 	 5.98335 	 86.9527 	 
S 	 50.7446 	 4.35123 	 80.9091 	 
C 	 50.7523 	 2.77588 	 80.1079 	 
C 	 49.8736 	 1.92309 	 80.7176 	 
C 	 49.3603 	 2.38447 	 81.9811 	 
C 	 49.75 	 3.72712 	 82.2411 	 
H 	 49.6625 	 0.937852 	 80.2726 	 
C 	 48.4337 	 1.50808 	 82.7012 	 
H 	 47.8171 	 0.907071 	 82.0751 	 
H 	 47.6959 	 2.20407 	 83.1412 	 
C 	 48.9266 	 0.614019 	 83.828 	 
H 	 49.5663 	 1.19359 	 84.5722 	 
H 	 49.5186 	 -0.219683 	 83.3989 	 
C 	 47.8153 	 -0.00413671 	 84.6813 	 
H 	 48.2581 	 -0.678458 	 85.4493 	 
H 	 47.1605 	 -0.626214 	 84.0243 	 
H 	 47.2311 	 0.771277 	 85.1633 	 
H 	 49.0414 	 7.87813 	 84.6511 	 
H 	 51.3282 	 2.57271 	 79.2247 	 
