34

S 	 -34.6742 	 57.3076 	 103.791 	 
C 	 -35.0064 	 55.9361 	 102.83 	 
C 	 -33.8726 	 55.161 	 102.68 	 
C 	 -32.6566 	 55.8699 	 103.109 	 
C 	 -32.9279 	 57.0936 	 103.579 	 
H 	 -31.6741 	 55.3727 	 103.034 	 
C 	 -33.8167 	 53.797 	 102.063 	 
H 	 -34.8366 	 53.4678 	 102.131 	 
H 	 -33.1962 	 53.1974 	 102.742 	 
C 	 -33.3393 	 53.9053 	 100.53 	 
H 	 -32.3773 	 54.3381 	 100.448 	 
H 	 -33.1058 	 52.9538 	 100.204 	 
C 	 -34.3935 	 54.4662 	 99.5076 	 
H 	 -34.5819 	 55.5358 	 99.7538 	 
H 	 -34.0411 	 54.4396 	 98.4763 	 
H 	 -35.2886 	 53.8362 	 99.5221 	 
S 	 -32.1012 	 57.6825 	 106.177 	 
C 	 -30.7989 	 58.8735 	 106.442 	 
C 	 -30.1755 	 59.1484 	 105.252 	 
C 	 -30.7765 	 58.5092 	 104.112 	 
C 	 -31.9448 	 57.843 	 104.431 	 
H 	 -29.229 	 59.7659 	 105.166 	 
C 	 -30.3065 	 58.7645 	 102.648 	 
H 	 -29.5671 	 59.6147 	 102.773 	 
H 	 -31.0789 	 59.2603 	 102.092 	 
C 	 -29.8154 	 57.5594 	 101.781 	 
H 	 -30.6082 	 56.8531 	 101.809 	 
H 	 -29.0438 	 56.9875 	 102.362 	 
C 	 -29.5106 	 57.8251 	 100.271 	 
H 	 -30.3387 	 58.2428 	 99.7574 	 
H 	 -29.2389 	 56.981 	 99.6944 	 
H 	 -28.804 	 58.5328 	 100.047 	 
H 	 -35.9323 	 55.5125 	 102.682 	 
H 	 -30.5918 	 59.2713 	 107.445 	 
