34

S 	 -101.155 	 56.0157 	 117.281 	 
C 	 -100.476 	 55.0178 	 116.059 	 
C 	 -101.325 	 54.8334 	 114.983 	 
C 	 -102.517 	 55.6633 	 115.108 	 
C 	 -102.523 	 56.4536 	 116.22 	 
H 	 -103.452 	 55.7113 	 114.481 	 
C 	 -100.973 	 53.9938 	 113.763 	 
H 	 -99.8843 	 53.6605 	 113.694 	 
H 	 -101.067 	 54.6064 	 112.899 	 
C 	 -101.837 	 52.7442 	 113.662 	 
H 	 -101.522 	 52.0917 	 112.793 	 
H 	 -101.687 	 52.1648 	 114.578 	 
C 	 -103.33 	 52.8801 	 113.47 	 
H 	 -103.847 	 53.2441 	 114.346 	 
H 	 -103.561 	 53.4391 	 112.624 	 
H 	 -103.703 	 51.868 	 113.36 	 
S 	 -103.146 	 58.9696 	 116.958 	 
C 	 -104.767 	 59.4942 	 117.234 	 
C 	 -105.638 	 58.5018 	 117.009 	 
C 	 -105.012 	 57.1692 	 116.751 	 
C 	 -103.641 	 57.3111 	 116.55 	 
H 	 -106.646 	 58.7282 	 117.106 	 
C 	 -105.841 	 55.8503 	 116.789 	 
H 	 -106.05 	 55.7808 	 117.855 	 
H 	 -105.138 	 55.0318 	 116.565 	 
C 	 -107.126 	 55.7118 	 115.858 	 
H 	 -107.696 	 56.5995 	 115.913 	 
H 	 -107.807 	 54.9143 	 116.215 	 
C 	 -106.804 	 55.6368 	 114.389 	 
H 	 -106.169 	 54.8329 	 114.134 	 
H 	 -106.223 	 56.5461 	 113.976 	 
H 	 -107.618 	 55.372 	 113.757 	 
H 	 -99.5538 	 54.4325 	 116.082 	 
H 	 -105.058 	 60.488 	 117.432 	 
