34

S 	 16.7096 	 -6.53623 	 80.1201 	 
C 	 16.2987 	 -6.07021 	 78.4488 	 
C 	 16.9558 	 -6.85173 	 77.4978 	 
C 	 17.786 	 -7.80259 	 78.1961 	 
C 	 17.7584 	 -7.83141 	 79.6165 	 
H 	 18.3966 	 -8.54601 	 77.7195 	 
C 	 16.8934 	 -6.60358 	 76.0218 	 
H 	 17.8448 	 -6.8029 	 75.6195 	 
H 	 16.591 	 -5.51451 	 75.8977 	 
C 	 15.9573 	 -7.50631 	 75.2877 	 
H 	 16.1368 	 -8.52719 	 75.4873 	 
H 	 14.9066 	 -7.30829 	 75.4946 	 
C 	 16.0395 	 -7.35207 	 73.7865 	 
H 	 15.311 	 -8.04406 	 73.2895 	 
H 	 15.8653 	 -6.32161 	 73.4873 	 
H 	 17.0339 	 -7.59652 	 73.4698 	 
S 	 19.7009 	 -7.65611 	 81.5289 	 
C 	 20.341 	 -9.11165 	 82.243 	 
C 	 19.8378 	 -10.2631 	 81.7376 	 
C 	 18.8926 	 -9.95123 	 80.6927 	 
C 	 18.5793 	 -8.57556 	 80.5472 	 
H 	 20.1881 	 -11.2688 	 82.029 	 
C 	 18.2946 	 -11.1179 	 79.8555 	 
H 	 17.3167 	 -10.7217 	 79.5146 	 
H 	 18.0856 	 -11.8795 	 80.5931 	 
C 	 19.1212 	 -11.6516 	 78.6892 	 
H 	 20.2081 	 -11.616 	 78.9617 	 
H 	 18.9111 	 -10.9139 	 77.9085 	 
C 	 18.6697 	 -12.9813 	 78.0541 	 
H 	 17.6263 	 -12.8736 	 77.7522 	 
H 	 18.6557 	 -13.7803 	 78.8282 	 
H 	 19.3552 	 -13.2271 	 77.226 	 
H 	 15.6701 	 -5.2443 	 78.1926 	 
H 	 20.9812 	 -9.13059 	 83.1106 	 
