34

S 	 -13.803 	 32.7823 	 36.0275 	 
C 	 -14.1789 	 33.9785 	 34.7739 	 
C 	 -15.5563 	 34.2126 	 34.7933 	 
C 	 -16.265 	 33.4438 	 35.7425 	 
C 	 -15.4608 	 32.5117 	 36.3792 	 
H 	 -17.3481 	 33.4191 	 35.9786 	 
C 	 -16.26 	 35.299 	 33.8797 	 
H 	 -15.6386 	 35.8932 	 33.3565 	 
H 	 -16.8345 	 36.0116 	 34.458 	 
C 	 -17.3051 	 34.8262 	 32.8059 	 
H 	 -16.7596 	 34.1586 	 32.2178 	 
H 	 -18.0473 	 34.2293 	 33.3899 	 
C 	 -17.7551 	 35.9602 	 31.916 	 
H 	 -18.6396 	 35.685 	 31.3361 	 
H 	 -17.9207 	 36.8353 	 32.4673 	 
H 	 -17.0554 	 36.1354 	 31.1808 	 
S 	 -15.4384 	 32.057 	 39.1236 	 
C 	 -16.2521 	 30.6454 	 39.7706 	 
C 	 -16.7278 	 29.8958 	 38.7208 	 
C 	 -16.5333 	 30.3926 	 37.3547 	 
C 	 -15.7591 	 31.5765 	 37.4281 	 
H 	 -17.3356 	 29.0593 	 39.1033 	 
C 	 -17.131 	 29.7549 	 36.1416 	 
H 	 -17.4122 	 28.744 	 36.3678 	 
H 	 -16.393 	 29.8848 	 35.3332 	 
C 	 -18.4442 	 30.344 	 35.637 	 
H 	 -18.6229 	 30.0241 	 34.6118 	 
H 	 -18.2138 	 31.3893 	 35.5577 	 
C 	 -19.6402 	 30.029 	 36.591 	 
H 	 -20.0583 	 29.1251 	 36.3351 	 
H 	 -20.4534 	 30.7224 	 36.4557 	 
H 	 -19.3224 	 30.0354 	 37.6489 	 
H 	 -13.4994 	 34.6556 	 34.2732 	 
H 	 -16.2822 	 30.4045 	 40.8174 	 
