34

S 	 -22.8986 	 -0.564535 	 88.3011 	 
C 	 -24.2586 	 -1.09124 	 89.2288 	 
C 	 -25.3354 	 -1.47392 	 88.4545 	 
C 	 -24.9839 	 -1.2774 	 87.1101 	 
C 	 -23.6664 	 -0.963497 	 86.8341 	 
H 	 -25.5483 	 -1.36449 	 86.2016 	 
C 	 -26.6506 	 -1.97129 	 88.922 	 
H 	 -27.4113 	 -1.28385 	 88.5432 	 
H 	 -26.642 	 -1.80687 	 90.0354 	 
C 	 -26.8514 	 -3.40307 	 88.5444 	 
H 	 -25.9322 	 -3.95964 	 88.4649 	 
H 	 -27.3977 	 -3.84784 	 89.3657 	 
C 	 -27.7026 	 -3.72666 	 87.2743 	 
H 	 -28.6772 	 -3.19595 	 87.2973 	 
H 	 -27.1649 	 -3.35977 	 86.3237 	 
H 	 -27.7885 	 -4.8124 	 87.2818 	 
S 	 -22.2923 	 0.651781 	 85.0573 	 
C 	 -22.2964 	 0.296922 	 83.3336 	 
C 	 -22.6042 	 -1.0128 	 83.1926 	 
C 	 -23.0897 	 -1.6661 	 84.3777 	 
C 	 -23.0228 	 -0.87652 	 85.5288 	 
H 	 -22.3934 	 -1.35616 	 82.2609 	 
C 	 -23.7078 	 -3.02499 	 84.3372 	 
H 	 -24.1677 	 -3.24342 	 85.2941 	 
H 	 -22.8648 	 -3.64082 	 84.1108 	 
C 	 -24.7592 	 -3.27023 	 83.1794 	 
H 	 -24.3366 	 -2.94817 	 82.2581 	 
H 	 -25.6729 	 -2.69161 	 83.3516 	 
C 	 -25.2576 	 -4.73932 	 83.1235 	 
H 	 -25.7249 	 -5.0662 	 84.021 	 
H 	 -24.3561 	 -5.38134 	 82.9 	 
H 	 -25.9579 	 -4.83982 	 82.3235 	 
H 	 -24.2952 	 -1.08719 	 90.3984 	 
H 	 -21.9918 	 0.976712 	 82.554 	 
