34

S 	 -34.5521 	 59.2575 	 109.456 	 
C 	 -33.2752 	 60.3578 	 109.296 	 
C 	 -32.0647 	 59.702 	 109.501 	 
C 	 -32.2594 	 58.3459 	 109.772 	 
C 	 -33.5723 	 57.9323 	 109.841 	 
H 	 -31.4947 	 57.6785 	 109.99 	 
C 	 -30.6917 	 60.2542 	 109.296 	 
H 	 -30.6357 	 60.6927 	 108.305 	 
H 	 -29.8915 	 59.4495 	 109.161 	 
C 	 -30.1844 	 61.0484 	 110.436 	 
H 	 -30.4926 	 60.5725 	 111.368 	 
H 	 -29.1004 	 61.0921 	 110.404 	 
C 	 -30.8164 	 62.4429 	 110.465 	 
H 	 -30.3856 	 63.0119 	 111.318 	 
H 	 -30.5642 	 63.0405 	 109.564 	 
H 	 -31.8845 	 62.307 	 110.467 	 
S 	 -35.4379 	 56.8727 	 111.576 	 
C 	 -35.7317 	 55.2063 	 111.625 	 
C 	 -34.8372 	 54.4821 	 110.816 	 
C 	 -33.9264 	 55.3037 	 110.059 	 
C 	 -34.1975 	 56.6679 	 110.312 	 
H 	 -34.9277 	 53.4545 	 110.828 	 
C 	 -32.9282 	 54.8306 	 109.032 	 
H 	 -32.4579 	 53.9448 	 109.375 	 
H 	 -32.1141 	 55.4767 	 108.963 	 
C 	 -33.7308 	 54.4715 	 107.797 	 
H 	 -34.5075 	 55.2055 	 107.548 	 
H 	 -34.1603 	 53.5584 	 108.014 	 
C 	 -32.8987 	 54.2428 	 106.506 	 
H 	 -31.9164 	 53.9966 	 106.646 	 
H 	 -33.0242 	 55.0982 	 105.793 	 
H 	 -33.2054 	 53.3623 	 105.95 	 
H 	 -33.2724 	 61.385 	 108.955 	 
H 	 -36.607 	 54.7911 	 112.22 	 
