34

S 	 -30.033 	 30.8542 	 43.059 	 
C 	 -28.4703 	 30.145 	 42.5792 	 
C 	 -27.4393 	 31.038 	 42.7317 	 
C 	 -27.9042 	 32.3474 	 43.12 	 
C 	 -29.2768 	 32.4471 	 43.1574 	 
H 	 -27.2776 	 33.2284 	 43.3201 	 
C 	 -26.0328 	 30.6425 	 42.1889 	 
H 	 -25.5998 	 31.5563 	 41.758 	 
H 	 -26.2283 	 29.9737 	 41.359 	 
C 	 -25.2184 	 29.9686 	 43.305 	 
H 	 -24.9196 	 30.7471 	 44.1036 	 
H 	 -25.7704 	 29.2074 	 43.7673 	 
C 	 -23.9527 	 29.2513 	 42.7352 	 
H 	 -23.4755 	 28.6979 	 43.5793 	 
H 	 -24.2313 	 28.5147 	 42.0095 	 
H 	 -23.2732 	 29.8685 	 42.1376 	 
S 	 -31.4778 	 33.2876 	 44.5165 	 
C 	 -31.7585 	 34.9533 	 44.6901 	 
C 	 -30.829 	 35.7662 	 44.0828 	 
C 	 -29.9032 	 34.9542 	 43.3237 	 
C 	 -30.0891 	 33.6089 	 43.5618 	 
H 	 -31.0023 	 36.831 	 43.9814 	 
C 	 -28.9014 	 35.456 	 42.4225 	 
H 	 -29.3536 	 35.5228 	 41.445 	 
H 	 -28.1308 	 34.7556 	 42.305 	 
C 	 -28.3527 	 36.8916 	 42.5973 	 
H 	 -29.1501 	 37.6254 	 42.5686 	 
H 	 -27.6963 	 37.1383 	 41.8431 	 
C 	 -27.6532 	 37.1225 	 43.9232 	 
H 	 -28.4229 	 37.5179 	 44.62 	 
H 	 -27.0256 	 37.9651 	 43.7037 	 
H 	 -26.9965 	 36.2919 	 44.2813 	 
H 	 -28.3487 	 29.0927 	 42.3128 	 
H 	 -32.5476 	 35.2304 	 45.29 	 
