34

S 	 59.5186 	 16.9318 	 52.1816 	 
C 	 58.8296 	 18.4213 	 52.7962 	 
C 	 58.3259 	 18.2451 	 54.1127 	 
C 	 58.5305 	 16.9084 	 54.598 	 
C 	 59.224 	 16.0813 	 53.6413 	 
H 	 58.3044 	 16.5696 	 55.6155 	 
C 	 57.7939 	 19.3789 	 55.0011 	 
H 	 57.9437 	 20.2835 	 54.364 	 
H 	 58.4637 	 19.3743 	 55.8411 	 
C 	 56.3228 	 19.3003 	 55.4336 	 
H 	 55.6367 	 19.0322 	 54.5978 	 
H 	 56.2176 	 18.5184 	 56.1861 	 
C 	 55.7579 	 20.5172 	 56.1124 	 
H 	 55.9213 	 21.422 	 55.5528 	 
H 	 54.6578 	 20.4925 	 56.191 	 
H 	 56.1524 	 20.7336 	 57.1015 	 
S 	 61.0366 	 14.0582 	 53.0563 	 
C 	 60.8618 	 12.4829 	 53.817 	 
C 	 59.7137 	 12.3876 	 54.4791 	 
C 	 58.9812 	 13.64 	 54.6115 	 
C 	 59.5651 	 14.6636 	 53.8537 	 
H 	 59.4846 	 11.3959 	 54.8511 	 
C 	 57.6328 	 13.7022 	 55.1862 	 
H 	 57.7217 	 14.6313 	 55.7491 	 
H 	 57.6837 	 12.6941 	 55.651 	 
C 	 56.482 	 13.8489 	 54.1712 	 
H 	 56.5451 	 13.0472 	 53.4499 	 
H 	 56.6931 	 14.7157 	 53.6643 	 
C 	 55.0082 	 14.0157 	 54.6889 	 
H 	 54.8193 	 14.8526 	 55.4206 	 
H 	 54.7447 	 13.0916 	 55.1051 	 
H 	 54.3564 	 14.2869 	 53.9063 	 
H 	 58.8184 	 19.4937 	 52.3741 	 
H 	 61.4551 	 11.6006 	 53.6194 	 
