34

S 	 22.5471 	 -11.2677 	 79.2021 	 
C 	 24.2114 	 -11.8196 	 79.2612 	 
C 	 25.0675 	 -10.8962 	 79.8521 	 
C 	 24.3899 	 -9.65752 	 79.7777 	 
C 	 23.11 	 -9.65783 	 79.3764 	 
H 	 24.9015 	 -8.65733 	 79.9444 	 
C 	 26.4542 	 -11.0989 	 80.4217 	 
H 	 27.2801 	 -10.3792 	 80.1173 	 
H 	 26.8226 	 -12.0432 	 80.0466 	 
C 	 26.3629 	 -11.0927 	 81.9473 	 
H 	 25.8046 	 -10.2687 	 82.2389 	 
H 	 25.764 	 -11.8896 	 82.3059 	 
C 	 27.7415 	 -11.3815 	 82.5271 	 
H 	 27.9703 	 -12.4039 	 82.2422 	 
H 	 28.5914 	 -10.7431 	 82.1918 	 
H 	 27.6987 	 -11.3376 	 83.5768 	 
S 	 20.5063 	 -9.02753 	 78.8495 	 
C 	 19.9243 	 -7.43644 	 79.2606 	 
C 	 20.9604 	 -6.56197 	 79.6461 	 
C 	 22.1877 	 -7.22152 	 79.7962 	 
C 	 22.1516 	 -8.56486 	 79.2869 	 
H 	 20.732 	 -5.55201 	 79.9196 	 
C 	 23.344 	 -6.49324 	 80.4125 	 
H 	 23.8037 	 -7.28955 	 81.1181 	 
H 	 22.8528 	 -5.82709 	 81.0449 	 
C 	 24.5166 	 -5.83424 	 79.6334 	 
H 	 24.0587 	 -5.23643 	 78.8778 	 
H 	 25.1148 	 -6.52013 	 79.0268 	 
C 	 25.5124 	 -4.96971 	 80.4683 	 
H 	 25.8963 	 -5.42942 	 81.3558 	 
H 	 24.9093 	 -4.13925 	 80.8154 	 
H 	 26.3453 	 -4.55161 	 79.9567 	 
H 	 24.507 	 -12.8695 	 79.2671 	 
H 	 18.8601 	 -7.12164 	 79.1551 	 
