34

S 	 -30.6325 	 75.6092 	 157.39 	 
C 	 -29.2679 	 76.6533 	 157.936 	 
C 	 -28.8626 	 76.2912 	 159.192 	 
C 	 -29.5706 	 75.1109 	 159.672 	 
C 	 -30.4665 	 74.587 	 158.758 	 
H 	 -29.4177 	 74.5923 	 160.581 	 
C 	 -27.7535 	 76.9574 	 160.035 	 
H 	 -28.0795 	 77.935 	 160.353 	 
H 	 -26.7895 	 77.0458 	 159.402 	 
C 	 -27.2433 	 76.1837 	 161.268 	 
H 	 -27.964 	 75.9636 	 162.049 	 
H 	 -26.7511 	 75.278 	 160.924 	 
C 	 -26.1601 	 77.0305 	 162.021 	 
H 	 -25.263 	 77.1165 	 161.501 	 
H 	 -26.5289 	 77.9868 	 162.443 	 
H 	 -25.8824 	 76.4413 	 162.929 	 
S 	 -30.4206 	 71.9576 	 158.9 	 
C 	 -31.8241 	 70.9355 	 159.131 	 
C 	 -32.894 	 71.777 	 159.105 	 
C 	 -32.6556 	 73.158 	 158.909 	 
C 	 -31.3142 	 73.4249 	 158.814 	 
H 	 -33.9008 	 71.2716 	 159.307 	 
C 	 -33.7534 	 74.3175 	 158.999 	 
H 	 -33.3304 	 75.3516 	 158.801 	 
H 	 -34.1408 	 74.2817 	 160.033 	 
C 	 -35.0101 	 74.294 	 158.127 	 
H 	 -35.7649 	 74.9959 	 158.379 	 
H 	 -35.4949 	 73.3499 	 158.288 	 
C 	 -34.7518 	 74.268 	 156.653 	 
H 	 -34.4091 	 73.2799 	 156.435 	 
H 	 -33.9727 	 75 	 156.37 	 
H 	 -35.6238 	 74.5436 	 156.129 	 
H 	 -28.8214 	 77.4407 	 157.362 	 
H 	 -31.8968 	 69.8621 	 159.073 	 
