34

S 	 4.33663 	 -5.55168 	 92.7464 	 
C 	 4.4405 	 -4.90457 	 94.4024 	 
C 	 3.20173 	 -4.53007 	 94.9038 	 
C 	 2.13084 	 -4.78788 	 93.9847 	 
C 	 2.56464 	 -5.44636 	 92.8345 	 
H 	 1.05312 	 -4.57359 	 94.1353 	 
C 	 3.07972 	 -3.87199 	 96.2683 	 
H 	 2.24268 	 -3.22757 	 96.3223 	 
H 	 4.01637 	 -3.29912 	 96.3342 	 
C 	 3.05934 	 -4.68482 	 97.5527 	 
H 	 2.93511 	 -3.93723 	 98.2758 	 
H 	 2.24037 	 -5.3025 	 97.6254 	 
C 	 4.19373 	 -5.64835 	 97.6281 	 
H 	 5.19911 	 -5.25907 	 97.6638 	 
H 	 4.10351 	 -6.33471 	 98.4089 	 
H 	 4.22477 	 -6.21064 	 96.7124 	 
S 	 2.34041 	 -5.93055 	 90.1217 	 
C 	 0.740503 	 -6.28338 	 89.3835 	 
C 	 -0.081927 	 -6.71813 	 90.3388 	 
C 	 0.409606 	 -6.58291 	 91.71 	 
C 	 1.73396 	 -6.10341 	 91.7763 	 
H 	 -1.07958 	 -7.05178 	 90.0534 	 
C 	 -0.497155 	 -6.73917 	 92.914 	 
H 	 -0.0728053 	 -6.63992 	 93.8828 	 
H 	 -0.664754 	 -7.81082 	 92.8798 	 
C 	 -1.71727 	 -5.76665 	 92.8404 	 
H 	 -2.23627 	 -5.76084 	 91.8669 	 
H 	 -1.37872 	 -4.82592 	 93.2298 	 
C 	 -2.72748 	 -6.21819 	 93.9227 	 
H 	 -3.51762 	 -5.46285 	 94.0911 	 
H 	 -2.32845 	 -6.32202 	 94.9326 	 
H 	 -3.19287 	 -7.23256 	 93.6848 	 
H 	 5.31491 	 -4.85019 	 95.0709 	 
H 	 0.425398 	 -6.25489 	 88.3273 	 
