34

S 	 -47.0946 	 55.8309 	 95.6883 	 
C 	 -48.518 	 55.4115 	 96.6688 	 
C 	 -48.2709 	 55.3081 	 98.0524 	 
C 	 -46.9322 	 55.6944 	 98.3355 	 
C 	 -46.2001 	 56.039 	 97.1874 	 
H 	 -46.5065 	 55.7168 	 99.3136 	 
C 	 -49.3208 	 54.8819 	 99.0812 	 
H 	 -50.2955 	 54.807 	 98.5821 	 
H 	 -49.3247 	 55.6554 	 99.9044 	 
C 	 -49.0123 	 53.5787 	 99.7544 	 
H 	 -48.8169 	 52.8128 	 99.0443 	 
H 	 -48.1451 	 53.5872 	 100.439 	 
C 	 -50.1597 	 53.084 	 100.677 	 
H 	 -51.1311 	 53.14 	 100.122 	 
H 	 -49.9612 	 52.0348 	 100.911 	 
H 	 -50.1375 	 53.623 	 101.617 	 
S 	 -43.7819 	 55.0323 	 96.1924 	 
C 	 -42.2869 	 55.5108 	 96.8231 	 
C 	 -42.4937 	 56.489 	 97.8236 	 
C 	 -43.8492 	 56.7726 	 98.1446 	 
C 	 -44.7358 	 56.1723 	 97.219 	 
H 	 -41.6078 	 56.8683 	 98.3228 	 
C 	 -44.2331 	 57.8142 	 99.1488 	 
H 	 -44.506 	 57.2205 	 100.018 	 
H 	 -45.0845 	 58.4082 	 98.8264 	 
C 	 -43.1901 	 58.8718 	 99.6227 	 
H 	 -42.2583 	 58.3492 	 99.8884 	 
H 	 -43.5306 	 59.3606 	 100.53 	 
C 	 -43.0217 	 60.0207 	 98.5896 	 
H 	 -42.1938 	 60.6749 	 98.9064 	 
H 	 -44.0269 	 60.5277 	 98.4669 	 
H 	 -42.7895 	 59.772 	 97.5799 	 
H 	 -49.348 	 54.8733 	 96.1415 	 
H 	 -41.3438 	 55.2403 	 96.3915 	 
