34

S 	 4.92944 	 -13.4112 	 58.3741 	 
C 	 4.43225 	 -12.856 	 59.9553 	 
C 	 3.57004 	 -13.7901 	 60.5869 	 
C 	 3.24478 	 -14.8802 	 59.7161 	 
C 	 4.07672 	 -14.9862 	 58.6062 	 
H 	 2.5028 	 -15.6121 	 59.9767 	 
C 	 3.03598 	 -13.8234 	 62.0254 	 
H 	 2.79301 	 -12.7562 	 62.4024 	 
H 	 3.99601 	 -14.0297 	 62.5929 	 
C 	 1.89318 	 -14.8735 	 62.406 	 
H 	 1.0601 	 -14.8212 	 61.7331 	 
H 	 2.28726 	 -15.8935 	 62.3788 	 
C 	 1.4397 	 -14.5561 	 63.8185 	 
H 	 0.950728 	 -13.5898 	 63.9129 	 
H 	 0.708062 	 -15.3697 	 64.0655 	 
H 	 2.23667 	 -14.6675 	 64.5706 	 
S 	 4.28191 	 -15.4822 	 55.9728 	 
C 	 4.23931 	 -17.0955 	 55.3934 	 
C 	 4.08199 	 -17.9594 	 56.4273 	 
C 	 3.89271 	 -17.3884 	 57.7067 	 
C 	 4.14388 	 -16.0345 	 57.636 	 
H 	 4.07384 	 -18.9925 	 56.2924 	 
C 	 3.74944 	 -18.2185 	 58.9609 	 
H 	 3.36608 	 -19.2502 	 58.7004 	 
H 	 2.98591 	 -17.8819 	 59.6126 	 
C 	 5.12152 	 -18.2898 	 59.6853 	 
H 	 5.38126 	 -17.3708 	 60.127 	 
H 	 5.9531 	 -18.4888 	 59.008 	 
C 	 5.04418 	 -19.2803 	 60.826 	 
H 	 5.2166 	 -20.2892 	 60.4631 	 
H 	 4.06145 	 -19.1255 	 61.3572 	 
H 	 5.80156 	 -19.1394 	 61.6585 	 
H 	 4.72139 	 -11.9316 	 60.5019 	 
H 	 4.37399 	 -17.4389 	 54.3947 	 
