34

S 	 -21.1289 	 0.0822615 	 77.2736 	 
C 	 -20.4967 	 -1.36633 	 76.5347 	 
C 	 -21.3492 	 -1.92856 	 75.5883 	 
C 	 -22.4708 	 -1.06591 	 75.3343 	 
C 	 -22.465 	 0.132031 	 76.1284 	 
H 	 -23.2756 	 -1.26291 	 74.5875 	 
C 	 -21.0004 	 -3.16869 	 74.7665 	 
H 	 -21.9561 	 -3.57506 	 74.383 	 
H 	 -20.5835 	 -3.88776 	 75.4063 	 
C 	 -20.0027 	 -2.86585 	 73.7123 	 
H 	 -19.1063 	 -2.40326 	 74.2201 	 
H 	 -19.6886 	 -3.91392 	 73.3626 	 
C 	 -20.4152 	 -1.76299 	 72.6888 	 
H 	 -21.3552 	 -2.00544 	 72.0971 	 
H 	 -20.4479 	 -0.79831 	 73.1247 	 
H 	 -19.5362 	 -1.70223 	 71.9551 	 
S 	 -22.9489 	 2.59082 	 77.1365 	 
C 	 -24.3703 	 3.53612 	 76.8273 	 
C 	 -25.2287 	 2.79194 	 75.9876 	 
C 	 -24.7152 	 1.47503 	 75.684 	 
C 	 -23.4274 	 1.24018 	 76.1597 	 
H 	 -26.1199 	 3.28362 	 75.6045 	 
C 	 -25.4895 	 0.493668 	 74.8176 	 
H 	 -24.8049 	 0.31214 	 73.979 	 
H 	 -26.3273 	 0.997744 	 74.237 	 
C 	 -25.8915 	 -0.842926 	 75.5284 	 
H 	 -26.6306 	 -0.762389 	 76.2739 	 
H 	 -25.0171 	 -1.19952 	 76.1574 	 
C 	 -26.2217 	 -2.07273 	 74.532 	 
H 	 -25.4182 	 -2.5344 	 74.0439 	 
H 	 -26.9317 	 -1.84438 	 73.7657 	 
H 	 -26.8034 	 -2.85086 	 75.1253 	 
H 	 -19.5829 	 -1.93763 	 76.8596 	 
H 	 -24.5761 	 4.54156 	 77.1638 	 
