34

S 	 -45.5017 	 55.8169 	 99.7843 	 
C 	 -46.4199 	 54.3499 	 99.6526 	 
C 	 -46.3182 	 53.6924 	 98.4456 	 
C 	 -45.5755 	 54.4943 	 97.5642 	 
C 	 -44.8942 	 55.5451 	 98.1567 	 
H 	 -45.5326 	 54.3915 	 96.5046 	 
C 	 -47.1644 	 52.5595 	 97.9748 	 
H 	 -47.111 	 52.5803 	 96.9064 	 
H 	 -48.2471 	 52.7573 	 98.0237 	 
C 	 -46.6801 	 51.1391 	 98.3234 	 
H 	 -47.3918 	 50.5197 	 97.9272 	 
H 	 -45.6766 	 50.8138 	 97.9312 	 
C 	 -46.6197 	 50.9744 	 99.865 	 
H 	 -47.4787 	 51.3727 	 100.391 	 
H 	 -46.5932 	 49.8949 	 100.26 	 
H 	 -45.7744 	 51.489 	 100.278 	 
S 	 -44.465 	 58.1769 	 97.5408 	 
C 	 -43.0553 	 58.5935 	 96.4968 	 
C 	 -42.2862 	 57.4787 	 96.2541 	 
C 	 -42.7489 	 56.2969 	 96.9065 	 
C 	 -44.0059 	 56.503 	 97.5233 	 
H 	 -41.3644 	 57.5093 	 95.6956 	 
C 	 -42.1212 	 54.9339 	 96.7306 	 
H 	 -42.2453 	 54.6654 	 95.6951 	 
H 	 -42.7187 	 54.2433 	 97.2864 	 
C 	 -40.6618 	 54.8573 	 97.2163 	 
H 	 -40.0723 	 55.6308 	 96.7685 	 
H 	 -40.4511 	 53.9047 	 96.847 	 
C 	 -40.5576 	 55.0115 	 98.6834 	 
H 	 -39.5266 	 54.9784 	 99.0082 	 
H 	 -41.1126 	 54.2691 	 99.2938 	 
H 	 -40.9248 	 56.0332 	 98.9731 	 
H 	 -47.0701 	 53.9905 	 100.407 	 
H 	 -42.7242 	 59.6126 	 96.1048 	 
