34

S 	 -76.7286 	 39.109 	 139.314 	 
C 	 -76.6111 	 37.4221 	 139.08 	 
C 	 -77.1732 	 37.1225 	 137.827 	 
C 	 -77.6311 	 38.2579 	 137.111 	 
C 	 -77.4379 	 39.4587 	 137.738 	 
H 	 -78.1375 	 38.2947 	 136.153 	 
C 	 -77.2278 	 35.7526 	 137.173 	 
H 	 -77.8695 	 35.8249 	 136.251 	 
H 	 -77.6015 	 35.0507 	 137.93 	 
C 	 -75.8544 	 35.1192 	 136.735 	 
H 	 -75.1175 	 35.1953 	 137.557 	 
H 	 -76.0995 	 34.0474 	 136.554 	 
C 	 -75.1996 	 35.8922 	 135.605 	 
H 	 -75.8415 	 35.8794 	 134.725 	 
H 	 -74.9972 	 36.8837 	 135.814 	 
H 	 -74.2478 	 35.4786 	 135.264 	 
S 	 -78.8777 	 41.6034 	 138.146 	 
C 	 -78.9318 	 42.9641 	 137.077 	 
C 	 -77.9962 	 42.7754 	 136.077 	 
C 	 -77.3724 	 41.4814 	 136.064 	 
C 	 -77.694 	 40.7877 	 137.235 	 
H 	 -77.9085 	 43.6493 	 135.424 	 
C 	 -76.7235 	 41.0378 	 134.793 	 
H 	 -75.9387 	 40.3622 	 135.14 	 
H 	 -76.2722 	 41.996 	 134.326 	 
C 	 -77.6523 	 40.2729 	 133.791 	 
H 	 -78.086 	 39.4113 	 134.376 	 
H 	 -77.1546 	 39.8994 	 132.868 	 
C 	 -78.7773 	 41.1535 	 133.284 	 
H 	 -79.5864 	 40.6509 	 132.71 	 
H 	 -78.5465 	 41.944 	 132.645 	 
H 	 -79.2303 	 41.5399 	 134.198 	 
H 	 -76.0466 	 36.7207 	 139.598 	 
H 	 -79.6497 	 43.7803 	 136.99 	 
