34

S 	 -74.401 	 58.5497 	 125.64 	 
C 	 -74.6683 	 60.1172 	 124.95 	 
C 	 -73.574 	 60.9853 	 124.997 	 
C 	 -72.4979 	 60.3562 	 125.752 	 
C 	 -72.7426 	 59.0778 	 126.164 	 
H 	 -71.5079 	 60.7319 	 125.879 	 
C 	 -73.5537 	 62.4504 	 124.581 	 
H 	 -73.6201 	 63.0409 	 125.519 	 
H 	 -74.4481 	 62.6427 	 123.928 	 
C 	 -72.3816 	 62.9585 	 123.702 	 
H 	 -71.4868 	 62.3898 	 123.944 	 
H 	 -72.5718 	 62.7176 	 122.632 	 
C 	 -72.1185 	 64.4108 	 123.838 	 
H 	 -73.0744 	 64.914 	 123.502 	 
H 	 -71.9215 	 64.6225 	 124.951 	 
H 	 -71.3623 	 64.8101 	 123.123 	 
S 	 -72.2209 	 57.8252 	 128.498 	 
C 	 -70.7966 	 56.825 	 128.638 	 
C 	 -69.9884 	 57.0049 	 127.569 	 
C 	 -70.5618 	 57.8468 	 126.514 	 
C 	 -71.8128 	 58.2679 	 126.855 	 
H 	 -69.0874 	 56.4738 	 127.488 	 
C 	 -69.89 	 58.0074 	 125.178 	 
H 	 -69.9189 	 59.0801 	 124.948 	 
H 	 -70.3982 	 57.5315 	 124.345 	 
C 	 -68.4432 	 57.5909 	 125.03 	 
H 	 -68.14 	 56.5592 	 125.143 	 
H 	 -67.9354 	 58.0616 	 125.821 	 
C 	 -67.7151 	 58.2185 	 123.822 	 
H 	 -67.8095 	 57.6537 	 122.908 	 
H 	 -66.6814 	 58.4875 	 124.014 	 
H 	 -68.2115 	 59.1027 	 123.396 	 
H 	 -75.553 	 60.3282 	 124.315 	 
H 	 -70.3733 	 56.2932 	 129.474 	 
