34

S 	 -118.583 	 47.0598 	 131.448 	 
C 	 -118.568 	 47.09 	 133.202 	 
C 	 -118.6 	 45.8112 	 133.716 	 
C 	 -118.33 	 44.8257 	 132.724 	 
C 	 -118.217 	 45.35 	 131.419 	 
H 	 -118.25 	 43.7518 	 132.79 	 
C 	 -118.821 	 45.4068 	 135.143 	 
H 	 -118.933 	 44.3229 	 135.266 	 
H 	 -119.856 	 45.6811 	 135.415 	 
C 	 -117.758 	 45.7927 	 136.165 	 
H 	 -117.83 	 45.2395 	 137.081 	 
H 	 -116.812 	 45.5494 	 135.736 	 
C 	 -117.818 	 47.2661 	 136.494 	 
H 	 -117.083 	 47.3529 	 137.3 	 
H 	 -117.474 	 47.8458 	 135.565 	 
H 	 -118.785 	 47.6072 	 137.002 	 
S 	 -119.613 	 44.8646 	 129.051 	 
C 	 -119.224 	 43.4329 	 128.181 	 
C 	 -117.994 	 42.9394 	 128.52 	 
C 	 -117.491 	 43.6119 	 129.702 	 
C 	 -118.32 	 44.6152 	 130.156 	 
H 	 -117.707 	 42.1454 	 127.951 	 
C 	 -116.105 	 43.1337 	 130.267 	 
H 	 -115.994 	 42.1944 	 129.831 	 
H 	 -116.132 	 43.0552 	 131.335 	 
C 	 -114.936 	 44.0013 	 129.9 	 
H 	 -114.661 	 44.033 	 128.821 	 
H 	 -114.109 	 43.5061 	 130.415 	 
C 	 -115.018 	 45.4681 	 130.477 	 
H 	 -115.836 	 45.9958 	 129.982 	 
H 	 -114.057 	 45.9301 	 130.239 	 
H 	 -115.107 	 45.5902 	 131.59 	 
H 	 -118.789 	 47.9773 	 133.776 	 
H 	 -119.995 	 43.0476 	 127.476 	 
