34

S 	 -87.0714 	 46.7344 	 130.353 	 
C 	 -87.2519 	 45.3572 	 131.495 	 
C 	 -86.3295 	 44.3739 	 131.164 	 
C 	 -85.5835 	 44.7462 	 130.045 	 
C 	 -85.8559 	 45.9133 	 129.423 	 
H 	 -84.8846 	 44.0236 	 129.636 	 
C 	 -86.2576 	 43.0231 	 131.757 	 
H 	 -85.6202 	 42.4228 	 131.241 	 
H 	 -87.1472 	 42.449 	 131.605 	 
C 	 -86.0883 	 42.8446 	 133.288 	 
H 	 -87.0062 	 43.0451 	 133.881 	 
H 	 -85.9409 	 41.8428 	 133.461 	 
C 	 -84.925 	 43.5186 	 133.997 	 
H 	 -84.7521 	 43.0254 	 134.98 	 
H 	 -84.0054 	 43.4467 	 133.463 	 
H 	 -85.1435 	 44.5992 	 134.221 	 
S 	 -83.9266 	 47.6844 	 128.428 	 
C 	 -83.8604 	 47.9902 	 126.702 	 
C 	 -84.8174 	 47.2899 	 126.025 	 
C 	 -85.5965 	 46.447 	 126.878 	 
C 	 -85.2705 	 46.5349 	 128.218 	 
H 	 -84.9214 	 47.5006 	 124.944 	 
C 	 -86.6255 	 45.4642 	 126.291 	 
H 	 -87.3089 	 45.1668 	 127.064 	 
H 	 -86.0933 	 44.5668 	 125.991 	 
C 	 -87.424 	 45.921 	 125.015 	 
H 	 -87.939 	 45.019 	 124.725 	 
H 	 -86.8431 	 46.2582 	 124.15 	 
C 	 -88.4499 	 47.0585 	 125.274 	 
H 	 -88.0738 	 47.9334 	 125.849 	 
H 	 -89.2321 	 46.6394 	 125.914 	 
H 	 -88.8209 	 47.3769 	 124.316 	 
H 	 -88.0404 	 45.3564 	 132.243 	 
H 	 -83.2025 	 48.6384 	 126.184 	 
