34

S 	 10.7325 	 -9.91579 	 87.3437 	 
C 	 11.7459 	 -9.25443 	 88.5729 	 
C 	 10.9553 	 -8.67129 	 89.5772 	 
C 	 9.5413 	 -8.90529 	 89.3912 	 
C 	 9.30459 	 -9.60876 	 88.2416 	 
H 	 8.81289 	 -8.66566 	 90.1196 	 
C 	 11.5364 	 -7.93492 	 90.751 	 
H 	 11.4992 	 -6.83639 	 90.5592 	 
H 	 12.5562 	 -8.18822 	 90.8364 	 
C 	 10.935 	 -8.44343 	 92.1156 	 
H 	 9.95916 	 -8.04783 	 92.104 	 
H 	 10.8468 	 -9.53781 	 92.2225 	 
C 	 11.6789 	 -7.98118 	 93.4499 	 
H 	 11.5138 	 -8.61214 	 94.3235 	 
H 	 12.7795 	 -8.02748 	 93.3357 	 
H 	 11.3433 	 -6.98007 	 93.6768 	 
S 	 7.75372 	 -11.6162 	 87.1106 	 
C 	 6.03083 	 -11.2358 	 86.9269 	 
C 	 5.68201 	 -9.92896 	 87.4014 	 
C 	 6.78823 	 -9.21109 	 87.9227 	 
C 	 7.97865 	 -9.96042 	 87.7664 	 
H 	 4.62935 	 -9.69041 	 87.3118 	 
C 	 6.6089 	 -7.75004 	 88.515 	 
H 	 5.98799 	 -7.19599 	 87.8349 	 
H 	 7.63975 	 -7.31518 	 88.5435 	 
C 	 5.88139 	 -7.64172 	 89.8141 	 
H 	 6.41989 	 -8.12915 	 90.5615 	 
H 	 4.94945 	 -8.11398 	 89.891 	 
C 	 5.62274 	 -6.19244 	 90.2154 	 
H 	 6.55206 	 -5.59842 	 90.3422 	 
H 	 5.10198 	 -6.00064 	 91.1978 	 
H 	 5.07135 	 -5.70212 	 89.434 	 
H 	 12.8207 	 -9.10083 	 88.6219 	 
H 	 5.15696 	 -11.7913 	 86.5554 	 
