34

S 	 4.7001 	 24.0473 	 67.2172 	 
C 	 3.91215 	 23.5282 	 65.7433 	 
C 	 4.12054 	 24.4246 	 64.7244 	 
C 	 4.86092 	 25.5961 	 65.1561 	 
C 	 5.30584 	 25.5043 	 66.4868 	 
H 	 5.29157 	 26.4165 	 64.5239 	 
C 	 3.68298 	 24.1999 	 63.3378 	 
H 	 3.26573 	 25.1423 	 62.9245 	 
H 	 2.72892 	 23.5735 	 63.2874 	 
C 	 4.72179 	 23.6795 	 62.3408 	 
H 	 4.22377 	 23.6714 	 61.3403 	 
H 	 5.63599 	 24.3091 	 62.3181 	 
C 	 5.15144 	 22.1875 	 62.8171 	 
H 	 4.33531 	 21.5329 	 62.712 	 
H 	 5.93465 	 21.9704 	 62.1512 	 
H 	 5.49287 	 22.0986 	 63.8987 	 
S 	 7.6644 	 26.0638 	 67.8248 	 
C 	 7.99956 	 27.6661 	 68.3213 	 
C 	 6.96168 	 28.4339 	 68.007 	 
C 	 5.80396 	 27.7594 	 67.5614 	 
C 	 6.02043 	 26.454 	 67.2761 	 
H 	 7.05173 	 29.4267 	 68.2798 	 
C 	 4.51856 	 28.5137 	 67.2427 	 
H 	 3.71854 	 27.8502 	 67.1281 	 
H 	 4.64312 	 29.0356 	 66.2501 	 
C 	 4.16601 	 29.481 	 68.3272 	 
H 	 4.97425 	 30.1766 	 68.4586 	 
H 	 4.1906 	 29.0661 	 69.3507 	 
C 	 2.94473 	 30.3228 	 68.0524 	 
H 	 2.81381 	 30.7782 	 67.0038 	 
H 	 2.97708 	 31.1343 	 68.765 	 
H 	 2.02758 	 29.7474 	 68.181 	 
H 	 3.53581 	 22.5701 	 65.4362 	 
H 	 8.8994 	 28.0342 	 68.755 	 
