34

S 	 -73.9817 	 38.8736 	 119.688 	 
C 	 -73.068 	 37.8013 	 120.684 	 
C 	 -72.2246 	 38.5095 	 121.54 	 
C 	 -72.2829 	 39.922 	 121.32 	 
C 	 -73.0013 	 40.2317 	 120.177 	 
H 	 -71.7376 	 40.6747 	 121.91 	 
C 	 -71.4457 	 37.9188 	 122.667 	 
H 	 -72.1424 	 37.1121 	 123.088 	 
H 	 -71.3365 	 38.6215 	 123.457 	 
C 	 -70.0568 	 37.3885 	 122.212 	 
H 	 -69.7355 	 36.5816 	 122.953 	 
H 	 -70.1797 	 36.8209 	 121.276 	 
C 	 -68.9015 	 38.436 	 122.051 	 
H 	 -69.0728 	 39.1989 	 121.277 	 
H 	 -68.8042 	 38.7928 	 123.134 	 
H 	 -67.923 	 37.997 	 121.816 	 
S 	 -74.9901 	 42.0243 	 119.603 	 
C 	 -74.6146 	 43.6486 	 119.29 	 
C 	 -73.3158 	 43.8845 	 119.497 	 
C 	 -72.4827 	 42.7228 	 119.684 	 
C 	 -73.3089 	 41.5867 	 119.644 	 
H 	 -72.9051 	 44.8537 	 119.467 	 
C 	 -70.9545 	 42.8347 	 120.035 	 
H 	 -70.7035 	 41.783 	 120.291 	 
H 	 -70.8171 	 43.2927 	 120.959 	 
C 	 -70.098 	 43.5321 	 119.009 	 
H 	 -70.6155 	 44.4668 	 118.97 	 
H 	 -70.2413 	 43.1065 	 118.06 	 
C 	 -68.6488 	 43.8323 	 119.39 	 
H 	 -68.2964 	 44.6571 	 118.818 	 
H 	 -68.1468 	 42.8923 	 119.263 	 
H 	 -68.6001 	 44.1477 	 120.473 	 
H 	 -73.2892 	 36.7611 	 120.705 	 
H 	 -75.3513 	 44.4308 	 119.088 	 
