34

S 	 35.6706 	 15.1831 	 64.1539 	 
C 	 35.1405 	 16.0855 	 65.591 	 
C 	 35.946 	 15.9493 	 66.6733 	 
C 	 37.1019 	 15.1563 	 66.3338 	 
C 	 37.0798 	 14.5405 	 65.0715 	 
H 	 37.9233 	 15.0981 	 67.0146 	 
C 	 35.8402 	 16.7921 	 67.9181 	 
H 	 35.5227 	 16.0825 	 68.7699 	 
H 	 35.0845 	 17.5577 	 67.9358 	 
C 	 37.1799 	 17.5076 	 68.3744 	 
H 	 38.0065 	 16.8323 	 68.587 	 
H 	 37.5128 	 18.1875 	 67.639 	 
C 	 36.8891 	 18.2791 	 69.6454 	 
H 	 36.2601 	 17.77 	 70.3646 	 
H 	 37.8387 	 18.4936 	 70.1596 	 
H 	 36.3757 	 19.1685 	 69.4243 	 
S 	 38.803 	 14.1835 	 62.8954 	 
C 	 40.0193 	 12.9707 	 62.9646 	 
C 	 39.8715 	 12.1543 	 64.0404 	 
C 	 38.8606 	 12.6657 	 64.9862 	 
C 	 38.184 	 13.8056 	 64.4828 	 
H 	 40.6311 	 11.4351 	 64.2878 	 
C 	 38.7133 	 11.951 	 66.3054 	 
H 	 37.9447 	 12.4938 	 66.8003 	 
H 	 39.6813 	 12.1137 	 66.8414 	 
C 	 38.3302 	 10.417 	 66.2257 	 
H 	 38.3053 	 10.0017 	 67.26 	 
H 	 39.055 	 9.87315 	 65.5577 	 
C 	 36.8953 	 10.1983 	 65.681 	 
H 	 36.6876 	 9.1771 	 65.4014 	 
H 	 36.8279 	 10.6399 	 64.773 	 
H 	 36.1186 	 10.5217 	 66.3558 	 
H 	 34.402 	 16.8597 	 65.6205 	 
H 	 40.8628 	 12.9132 	 62.3285 	 
