34

S 	 -92.9907 	 54.5366 	 126.339 	 
C 	 -91.6554 	 53.8778 	 125.435 	 
C 	 -92.1012 	 53.2697 	 124.267 	 
C 	 -93.5884 	 53.1975 	 124.281 	 
C 	 -94.139 	 53.9744 	 125.213 	 
H 	 -94.2332 	 52.72 	 123.557 	 
C 	 -91.1947 	 52.4394 	 123.345 	 
H 	 -91.3485 	 52.636 	 122.266 	 
H 	 -91.5653 	 51.4167 	 123.564 	 
C 	 -89.6771 	 52.3234 	 123.586 	 
H 	 -89.4247 	 52.1702 	 124.607 	 
H 	 -89.2511 	 51.5093 	 123.04 	 
C 	 -88.9563 	 53.5858 	 123.149 	 
H 	 -89.0617 	 53.7764 	 122.102 	 
H 	 -89.4218 	 54.3966 	 123.804 	 
H 	 -87.8337 	 53.6114 	 123.279 	 
S 	 -96.4592 	 52.9636 	 126.487 	 
C 	 -97.9879 	 53.7875 	 126.319 	 
C 	 -97.7632 	 55.0158 	 125.728 	 
C 	 -96.4205 	 55.2893 	 125.234 	 
C 	 -95.5672 	 54.1649 	 125.507 	 
H 	 -98.6387 	 55.5661 	 125.578 	 
C 	 -96.0613 	 56.5395 	 124.451 	 
H 	 -96.9738 	 57.1062 	 124.108 	 
H 	 -95.4432 	 56.1637 	 123.603 	 
C 	 -95.1677 	 57.4446 	 125.279 	 
H 	 -94.259 	 56.9303 	 125.785 	 
H 	 -95.767 	 57.914 	 126.072 	 
C 	 -94.7703 	 58.5981 	 124.35 	 
H 	 -94.0559 	 59.285 	 124.868 	 
H 	 -95.6077 	 59.226 	 124.072 	 
H 	 -94.2719 	 58.1932 	 123.432 	 
H 	 -90.5818 	 53.751 	 125.708 	 
H 	 -98.9618 	 53.4265 	 126.697 	 
