34

S 	 55.9243 	 4.38635 	 83.8009 	 
C 	 56.7837 	 3.13851 	 82.9683 	 
C 	 56.0739 	 1.88532 	 83.0248 	 
C 	 54.8904 	 2.07362 	 83.8081 	 
C 	 54.6813 	 3.29003 	 84.3166 	 
H 	 54.124 	 1.31818 	 83.9806 	 
C 	 56.3899 	 0.590045 	 82.3087 	 
H 	 55.4633 	 0.297616 	 81.7435 	 
H 	 56.7304 	 -0.235753 	 83.0104 	 
C 	 57.5021 	 0.73377 	 81.1493 	 
H 	 57.048 	 1.45463 	 80.416 	 
H 	 58.4229 	 1.17443 	 81.5336 	 
C 	 57.893 	 -0.494336 	 80.3709 	 
H 	 57.0865 	 -0.782121 	 79.7265 	 
H 	 58.6942 	 -0.300512 	 79.7485 	 
H 	 58.1924 	 -1.37724 	 80.9542 	 
S 	 52.6869 	 5.23922 	 84.4757 	 
C 	 52.0115 	 5.5567 	 86.0464 	 
C 	 52.2877 	 4.50818 	 86.8935 	 
C 	 53.2587 	 3.59449 	 86.4353 	 
C 	 53.6381 	 3.90721 	 85.1137 	 
H 	 51.6645 	 4.56835 	 87.7857 	 
C 	 53.8278 	 2.55107 	 87.4054 	 
H 	 54.8635 	 2.40927 	 87.1112 	 
H 	 53.3398 	 1.61817 	 87.2582 	 
C 	 53.865 	 2.96373 	 88.8917 	 
H 	 52.9153 	 3.04579 	 89.3655 	 
H 	 54.2549 	 3.93912 	 89.0797 	 
C 	 54.5767 	 1.85383 	 89.7108 	 
H 	 54.0554 	 0.888366 	 89.6425 	 
H 	 54.5858 	 2.12469 	 90.8004 	 
H 	 55.5985 	 1.6927 	 89.3054 	 
H 	 57.7788 	 3.30487 	 82.5405 	 
H 	 51.1579 	 6.2356 	 86.2582 	 
