34

S 	 12.7458 	 -7.92804 	 64.5941 	 
C 	 11.0618 	 -7.44303 	 64.845 	 
C 	 10.4847 	 -8.13741 	 65.8878 	 
C 	 11.3608 	 -9.13438 	 66.3795 	 
C 	 12.6094 	 -9.23811 	 65.75 	 
H 	 11.1836 	 -9.83739 	 67.2503 	 
C 	 9.03398 	 -7.9087 	 66.297 	 
H 	 8.80652 	 -8.82107 	 66.925 	 
H 	 8.3831 	 -7.91539 	 65.4429 	 
C 	 8.83764 	 -6.6457 	 67.1965 	 
H 	 9.6666 	 -6.34898 	 67.8071 	 
H 	 8.95652 	 -5.84648 	 66.5076 	 
C 	 7.40044 	 -6.67084 	 67.7926 	 
H 	 7.15975 	 -5.57319 	 67.9404 	 
H 	 6.61862 	 -7.18743 	 67.2534 	 
H 	 7.50107 	 -7.19499 	 68.7045 	 
S 	 15.3546 	 -9.51315 	 65.7574 	 
C 	 16.024 	 -10.856 	 66.6561 	 
C 	 15.119 	 -11.9105 	 66.6775 	 
C 	 13.8086 	 -11.481 	 66.3877 	 
C 	 13.743 	 -10.1234 	 66.0378 	 
H 	 15.5052 	 -12.8909 	 66.9514 	 
C 	 12.6453 	 -12.4825 	 66.4091 	 
H 	 11.6104 	 -12.0247 	 66.4836 	 
H 	 12.7048 	 -13.181 	 67.2482 	 
C 	 12.4609 	 -13.3568 	 65.0999 	 
H 	 13.3211 	 -13.9876 	 64.9354 	 
H 	 12.5514 	 -12.6555 	 64.2366 	 
C 	 11.129 	 -14.1717 	 65.0788 	 
H 	 11.2415 	 -15.0249 	 65.691 	 
H 	 10.8518 	 -14.4388 	 64.0557 	 
H 	 10.3191 	 -13.6247 	 65.5767 	 
H 	 10.587 	 -6.64454 	 64.2856 	 
H 	 17.0896 	 -11.0267 	 66.8401 	 
