34

S 	 13.9853 	 -12.8198 	 80.2454 	 
C 	 15.5735 	 -12.1783 	 79.813 	 
C 	 15.845 	 -12.5533 	 78.4695 	 
C 	 14.7946 	 -13.2886 	 77.883 	 
C 	 13.6856 	 -13.4627 	 78.6607 	 
H 	 14.8056 	 -13.7454 	 76.8942 	 
C 	 17.127 	 -12.3199 	 77.761 	 
H 	 17.1826 	 -13.0691 	 76.9944 	 
H 	 18.0468 	 -12.4774 	 78.3623 	 
C 	 17.2372 	 -10.8971 	 77.1464 	 
H 	 16.4579 	 -10.7484 	 76.3623 	 
H 	 17.0503 	 -10.1688 	 77.9409 	 
C 	 18.591 	 -10.6333 	 76.451 	 
H 	 19.4509 	 -10.3779 	 77.1166 	 
H 	 18.9144 	 -11.4858 	 75.8761 	 
H 	 18.582 	 -9.84808 	 75.6913 	 
S 	 12.5011 	 -15.9347 	 78.6386 	 
C 	 11.1462 	 -16.2757 	 77.6483 	 
C 	 10.7797 	 -15.094 	 76.9975 	 
C 	 11.5488 	 -13.9036 	 77.331 	 
C 	 12.5737 	 -14.2344 	 78.2104 	 
H 	 9.83526 	 -15.1364 	 76.4643 	 
C 	 11.1698 	 -12.5216 	 76.9089 	 
H 	 11.0952 	 -12.0142 	 77.8238 	 
H 	 10.185 	 -12.5489 	 76.5134 	 
C 	 12.2023 	 -11.8596 	 76.0409 	 
H 	 12.4021 	 -12.5481 	 75.2815 	 
H 	 13.068 	 -11.731 	 76.647 	 
C 	 11.7949 	 -10.5085 	 75.3612 	 
H 	 11.759 	 -9.77665 	 76.1527 	 
H 	 10.8139 	 -10.4565 	 74.8343 	 
H 	 12.5836 	 -10.1185 	 74.7703 	 
H 	 16.3074 	 -11.6736 	 80.4564 	 
H 	 10.6498 	 -17.2356 	 77.6379 	 
