34

S 	 7.61802 	 -4.20822 	 88.78 	 
C 	 7.96331 	 -2.99685 	 90.0115 	 
C 	 8.75757 	 -1.9412 	 89.5812 	 
C 	 9.04437 	 -2.08715 	 88.2275 	 
C 	 8.50298 	 -3.24213 	 87.6149 	 
H 	 9.55474 	 -1.38957 	 87.6024 	 
C 	 9.26548 	 -0.787968 	 90.3796 	 
H 	 8.58778 	 -0.229567 	 91.0233 	 
H 	 9.42363 	 -0.0351628 	 89.6667 	 
C 	 10.5875 	 -1.0998 	 90.9722 	 
H 	 10.3738 	 -1.73627 	 91.9339 	 
H 	 11.1103 	 -1.67646 	 90.1915 	 
C 	 11.3872 	 0.158924 	 91.4199 	 
H 	 12.3448 	 -0.126259 	 91.875 	 
H 	 11.6742 	 0.693685 	 90.5937 	 
H 	 10.8477 	 0.93103 	 91.9994 	 
S 	 9.60828 	 -5.05643 	 85.9996 	 
C 	 9.47374 	 -4.80537 	 84.2557 	 
C 	 8.50993 	 -3.87919 	 83.9005 	 
C 	 8.16179 	 -3.12938 	 85.04 	 
C 	 8.61627 	 -3.63403 	 86.2532 	 
H 	 8.24671 	 -3.65096 	 82.8296 	 
C 	 7.1852 	 -2.0325 	 84.9259 	 
H 	 7.39935 	 -1.65149 	 83.9696 	 
H 	 7.44368 	 -1.29419 	 85.7598 	 
C 	 5.69558 	 -2.42966 	 85.1821 	 
H 	 5.53783 	 -2.93572 	 86.1425 	 
H 	 5.35454 	 -3.16926 	 84.4567 	 
C 	 4.69911 	 -1.26372 	 85.0736 	 
H 	 3.76716 	 -1.61367 	 85.439 	 
H 	 4.69533 	 -0.961198 	 84.0163 	 
H 	 4.97081 	 -0.384644 	 85.629 	 
H 	 7.59971 	 -3.02039 	 91.0298 	 
H 	 9.87871 	 -5.43781 	 83.4851 	 
