34

S 	 -54.4132 	 43.6662 	 113.997 	 
C 	 -54.1037 	 44.4337 	 112.483 	 
C 	 -54.3547 	 43.5365 	 111.516 	 
C 	 -55.0204 	 42.3416 	 111.952 	 
C 	 -55.1689 	 42.2563 	 113.288 	 
H 	 -55.422 	 41.5925 	 111.262 	 
C 	 -54.1649 	 43.74 	 110.051 	 
H 	 -53.8907 	 44.8263 	 110.006 	 
H 	 -55.1544 	 43.6085 	 109.552 	 
C 	 -53.0984 	 42.8784 	 109.482 	 
H 	 -52.2719 	 43.2601 	 109.979 	 
H 	 -53.2957 	 41.8532 	 109.865 	 
C 	 -52.7491 	 42.9238 	 107.941 	 
H 	 -52.621 	 43.9176 	 107.613 	 
H 	 -51.8291 	 42.2883 	 107.755 	 
H 	 -53.6192 	 42.4543 	 107.502 	 
S 	 -55.1379 	 41.0132 	 115.701 	 
C 	 -56.2145 	 39.651 	 115.977 	 
C 	 -57.0186 	 39.5094 	 114.851 	 
C 	 -56.7534 	 40.4046 	 113.78 	 
C 	 -55.7349 	 41.2116 	 114.073 	 
H 	 -57.8045 	 38.7786 	 114.88 	 
C 	 -57.5724 	 40.2426 	 112.478 	 
H 	 -58.0409 	 39.2835 	 112.615 	 
H 	 -56.905 	 40.174 	 111.633 	 
C 	 -58.6577 	 41.2709 	 112.283 	 
H 	 -58.1847 	 42.2492 	 112.024 	 
H 	 -59.2852 	 41.3388 	 113.206 	 
C 	 -59.618 	 40.8031 	 111.093 	 
H 	 -59.1471 	 40.8488 	 110.134 	 
H 	 -60.5061 	 41.4628 	 110.994 	 
H 	 -59.9106 	 39.7229 	 111.167 	 
H 	 -53.6935 	 45.408 	 112.311 	 
H 	 -56.2701 	 38.9432 	 116.864 	 
