34

S 	 -73.9046 	 53.2178 	 139.432 	 
C 	 -73.2428 	 52.1684 	 140.599 	 
C 	 -72.8979 	 50.9719 	 140.058 	 
C 	 -73.061 	 50.9354 	 138.622 	 
C 	 -73.5922 	 52.0607 	 138.16 	 
H 	 -72.8181 	 50.0512 	 137.986 	 
C 	 -72.4408 	 49.7068 	 140.782 	 
H 	 -72.2267 	 49.8583 	 141.883 	 
H 	 -71.5091 	 49.4205 	 140.34 	 
C 	 -73.2713 	 48.4722 	 140.686 	 
H 	 -73.1264 	 48.0468 	 139.678 	 
H 	 -72.7871 	 47.6469 	 141.249 	 
C 	 -74.7381 	 48.7822 	 141.102 	 
H 	 -75.367 	 47.9391 	 140.811 	 
H 	 -74.818 	 48.9334 	 142.156 	 
H 	 -75.2899 	 49.6344 	 140.542 	 
S 	 -74.9211 	 50.9455 	 136.022 	 
C 	 -74.702 	 51.6579 	 134.425 	 
C 	 -74.1193 	 52.915 	 134.531 	 
C 	 -73.729 	 53.2476 	 135.912 	 
C 	 -74.025 	 52.2271 	 136.796 	 
H 	 -73.9952 	 53.5573 	 133.664 	 
C 	 -72.9543 	 54.5187 	 136.241 	 
H 	 -72.1961 	 54.6318 	 135.475 	 
H 	 -72.3639 	 54.2102 	 137.075 	 
C 	 -73.919 	 55.679 	 136.632 	 
H 	 -74.6494 	 55.4356 	 137.428 	 
H 	 -74.4531 	 55.9922 	 135.703 	 
C 	 -73.0173 	 56.863 	 136.991 	 
H 	 -73.6533 	 57.7553 	 137.057 	 
H 	 -72.1894 	 56.996 	 136.316 	 
H 	 -72.6094 	 56.6577 	 137.969 	 
H 	 -73.3917 	 52.4118 	 141.699 	 
H 	 -74.8334 	 51.1844 	 133.445 	 
