34

S 	 -29.7249 	 64.0566 	 108.295 	 
C 	 -29.7048 	 65.3068 	 107.068 	 
C 	 -29.8871 	 64.7639 	 105.812 	 
C 	 -30.3148 	 63.3888 	 105.816 	 
C 	 -30.3756 	 62.9302 	 107.112 	 
H 	 -30.5283 	 62.7843 	 104.948 	 
C 	 -29.906 	 65.5628 	 104.518 	 
H 	 -29.0889 	 65.2306 	 103.943 	 
H 	 -29.7976 	 66.6193 	 104.628 	 
C 	 -31.2119 	 65.3653 	 103.797 	 
H 	 -31.5513 	 64.3526 	 103.548 	 
H 	 -31.997 	 65.9054 	 104.298 	 
C 	 -31.1184 	 65.9141 	 102.331 	 
H 	 -30.5126 	 65.2174 	 101.834 	 
H 	 -32.1055 	 66.0574 	 101.833 	 
H 	 -30.5596 	 66.8701 	 102.24 	 
S 	 -32.1894 	 61.3196 	 108.453 	 
C 	 -31.7913 	 59.6072 	 108.559 	 
C 	 -30.7418 	 59.2663 	 107.76 	 
C 	 -30.2082 	 60.3716 	 107.007 	 
C 	 -30.7087 	 61.5677 	 107.479 	 
H 	 -30.468 	 58.2227 	 107.796 	 
C 	 -29.1907 	 60.2188 	 105.883 	 
H 	 -28.495 	 59.4297 	 106.205 	 
H 	 -28.584 	 61.1768 	 105.936 	 
C 	 -29.7478 	 59.8479 	 104.543 	 
H 	 -30.617 	 60.4778 	 104.242 	 
H 	 -30.2193 	 58.9072 	 104.602 	 
C 	 -28.6537 	 59.8851 	 103.442 	 
H 	 -28.5294 	 60.9297 	 103.106 	 
H 	 -29.0674 	 59.3158 	 102.605 	 
H 	 -27.7053 	 59.4389 	 103.767 	 
H 	 -29.4544 	 66.3616 	 107.2 	 
H 	 -32.2247 	 58.8107 	 109.155 	 
