34

S 	 -4.89173 	 -16.9762 	 91.5454 	 
C 	 -6.54956 	 -17.3804 	 91.5544 	 
C 	 -7.31898 	 -16.439 	 90.892 	 
C 	 -6.54014 	 -15.3827 	 90.322 	 
C 	 -5.17246 	 -15.689 	 90.3515 	 
H 	 -6.76131 	 -14.4799 	 89.7899 	 
C 	 -8.83343 	 -16.3518 	 90.7959 	 
H 	 -9.44811 	 -17.2286 	 90.8614 	 
H 	 -9.16525 	 -16.0627 	 89.7229 	 
C 	 -9.40375 	 -15.3309 	 91.7561 	 
H 	 -9.08396 	 -14.3094 	 91.4255 	 
H 	 -10.4895 	 -15.3123 	 91.554 	 
C 	 -9.18078 	 -15.6368 	 93.2035 	 
H 	 -9.5313 	 -14.9355 	 93.9033 	 
H 	 -9.68619 	 -16.5622 	 93.45 	 
H 	 -8.09514 	 -15.8344 	 93.3937 	 
S 	 -2.77595 	 -14.3317 	 90.8906 	 
C 	 -1.96147 	 -13.402 	 89.7091 	 
C 	 -2.75314 	 -13.4812 	 88.5347 	 
C 	 -3.86411 	 -14.3912 	 88.5968 	 
C 	 -4.09 	 -14.9047 	 89.8282 	 
H 	 -2.51462 	 -12.8837 	 87.6751 	 
C 	 -4.77614 	 -14.776 	 87.3973 	 
H 	 -5.33717 	 -15.6792 	 87.6075 	 
H 	 -4.05992 	 -15.1427 	 86.6582 	 
C 	 -5.7783 	 -13.759 	 86.8074 	 
H 	 -6.59521 	 -13.2943 	 87.5162 	 
H 	 -6.2999 	 -14.2941 	 86.0496 	 
C 	 -5.00402 	 -12.5857 	 86.1834 	 
H 	 -4.29353 	 -12.9422 	 85.4339 	 
H 	 -4.39813 	 -11.9948 	 86.8678 	 
H 	 -5.53728 	 -11.8136 	 85.7453 	 
H 	 -6.95811 	 -18.2678 	 92.1256 	 
H 	 -1.14998 	 -12.6556 	 89.8131 	 
