34

S 	 -32.3248 	 30.3237 	 41.6159 	 
C 	 -31.7533 	 29.477 	 43.1253 	 
C 	 -32.7712 	 29.4663 	 44.0929 	 
C 	 -34.0502 	 29.926 	 43.6124 	 
C 	 -33.926 	 30.4766 	 42.3312 	 
H 	 -34.9381 	 29.898 	 44.1847 	 
C 	 -32.4731 	 28.8936 	 45.4627 	 
H 	 -31.4327 	 28.5403 	 45.4815 	 
H 	 -32.9882 	 27.9819 	 45.5262 	 
C 	 -32.9319 	 29.652 	 46.6903 	 
H 	 -33.7553 	 30.2893 	 46.3175 	 
H 	 -33.4426 	 28.9601 	 47.3524 	 
C 	 -31.8916 	 30.3308 	 47.5831 	 
H 	 -31.2671 	 29.5756 	 47.9101 	 
H 	 -31.2648 	 30.9497 	 46.9673 	 
H 	 -32.1836 	 30.8814 	 48.4224 	 
S 	 -34.8587 	 32.9969 	 41.8809 	 
C 	 -36.3892 	 33.168 	 41.1632 	 
C 	 -36.8809 	 32.0287 	 40.6035 	 
C 	 -36.0635 	 30.9112 	 40.9571 	 
C 	 -34.9539 	 31.2551 	 41.6799 	 
H 	 -37.7491 	 32.0524 	 39.9708 	 
C 	 -36.5533 	 29.4935 	 40.6229 	 
H 	 -37.6333 	 29.4575 	 40.3849 	 
H 	 -36.4373 	 28.7674 	 41.3984 	 
C 	 -35.7944 	 28.878 	 39.4 	 
H 	 -34.772 	 29.1145 	 39.5695 	 
H 	 -36.1932 	 29.4532 	 38.5648 	 
C 	 -36.0461 	 27.3416 	 39.1246 	 
H 	 -35.4978 	 27.0603 	 38.2221 	 
H 	 -37.1405 	 27.1718 	 38.9849 	 
H 	 -35.6732 	 26.8028 	 39.9997 	 
H 	 -30.6837 	 29.2229 	 43.3111 	 
H 	 -36.945 	 34.0717 	 41.0394 	 
