34

S 	 67.6815 	 21.6494 	 73.2009 	 
C 	 67.0177 	 21.4145 	 74.7555 	 
C 	 67.2303 	 22.4874 	 75.6423 	 
C 	 67.7999 	 23.6283 	 74.9375 	 
C 	 68.2045 	 23.2645 	 73.6748 	 
H 	 67.9473 	 24.5944 	 75.3832 	 
C 	 66.7979 	 22.5557 	 77.1543 	 
H 	 67.1296 	 23.5059 	 77.5288 	 
H 	 67.4233 	 21.8086 	 77.6698 	 
C 	 65.3459 	 22.1823 	 77.5275 	 
H 	 64.6716 	 22.8196 	 76.9282 	 
H 	 65.0906 	 21.1617 	 77.1884 	 
C 	 65.1207 	 22.3545 	 78.9995 	 
H 	 65.5138 	 21.5215 	 79.6049 	 
H 	 65.4826 	 23.2412 	 79.3672 	 
H 	 64.0043 	 22.3582 	 79.1379 	 
S 	 67.8958 	 24.9354 	 71.4138 	 
C 	 69.1886 	 25.9864 	 70.8712 	 
C 	 70.3497 	 25.4089 	 71.3454 	 
C 	 70.2133 	 24.3943 	 72.3692 	 
C 	 68.8499 	 24.1202 	 72.6816 	 
H 	 71.2739 	 25.9088 	 71.0839 	 
C 	 71.3956 	 23.7998 	 73.0388 	 
H 	 72.1114 	 23.5292 	 72.2982 	 
H 	 71.0968 	 22.8983 	 73.534 	 
C 	 72.1335 	 24.6995 	 74.0504 	 
H 	 71.3853 	 24.7895 	 74.919 	 
H 	 72.3526 	 25.6988 	 73.6791 	 
C 	 73.4421 	 23.9278 	 74.4852 	 
H 	 73.7328 	 24.1528 	 75.5489 	 
H 	 74.3273 	 24.0992 	 73.877 	 
H 	 73.3733 	 22.8199 	 74.5192 	 
H 	 66.4238 	 20.5234 	 75.0418 	 
H 	 69.0712 	 26.8004 	 70.0945 	 
