34

S 	 -31.8527 	 66.1694 	 119.012 	 
C 	 -33.1824 	 65.23 	 118.387 	 
C 	 -32.8075 	 63.8834 	 118.276 	 
C 	 -31.3867 	 63.7376 	 118.474 	 
C 	 -30.7839 	 64.8727 	 119.009 	 
H 	 -30.9049 	 62.7956 	 118.408 	 
C 	 -33.7264 	 62.7299 	 118.065 	 
H 	 -33.2509 	 61.9192 	 117.462 	 
H 	 -34.6798 	 62.9395 	 117.48 	 
C 	 -34.2518 	 62.1078 	 119.346 	 
H 	 -35.0173 	 61.3391 	 119.01 	 
H 	 -33.374 	 61.7253 	 119.875 	 
C 	 -34.9708 	 63.0327 	 120.33 	 
H 	 -35.1565 	 62.4598 	 121.263 	 
H 	 -34.5066 	 63.9707 	 120.579 	 
H 	 -35.8923 	 63.2328 	 119.837 	 
S 	 -29.1865 	 65.7391 	 120.953 	 
C 	 -27.429 	 65.6068 	 120.849 	 
C 	 -27.0265 	 65.356 	 119.553 	 
C 	 -28.1461 	 64.9403 	 118.775 	 
C 	 -29.3762 	 64.9987 	 119.43 	 
H 	 -25.9637 	 65.3798 	 119.246 	 
C 	 -27.9011 	 64.4944 	 117.418 	 
H 	 -27.0639 	 65.0677 	 117.096 	 
H 	 -28.647 	 65.1 	 116.819 	 
C 	 -27.8191 	 63.0208 	 117.145 	 
H 	 -28.7026 	 62.5422 	 117.505 	 
H 	 -26.9204 	 62.6686 	 117.716 	 
C 	 -27.6984 	 62.7771 	 115.652 	 
H 	 -26.765 	 63.0911 	 115.271 	 
H 	 -28.3994 	 63.3671 	 115.032 	 
H 	 -27.8595 	 61.6903 	 115.397 	 
H 	 -34.1808 	 65.6472 	 118.224 	 
H 	 -26.7442 	 66.0041 	 121.611 	 
