34

S 	 -2.79583 	 72.9596 	 56.3932 	 
C 	 -3.40407 	 71.3773 	 56.8773 	 
C 	 -3.77609 	 70.6633 	 55.805 	 
C 	 -3.46102 	 71.2798 	 54.575 	 
C 	 -2.99637 	 72.5968 	 54.727 	 
H 	 -3.58301 	 70.7632 	 53.6302 	 
C 	 -4.35329 	 69.2425 	 55.8321 	 
H 	 -5.39987 	 69.319 	 55.4342 	 
H 	 -4.46608 	 68.8849 	 56.9342 	 
C 	 -3.5559 	 68.2128 	 54.9228 	 
H 	 -3.60208 	 68.5303 	 53.8729 	 
H 	 -2.50699 	 68.2564 	 55.2091 	 
C 	 -4.02366 	 66.7809 	 55.1139 	 
H 	 -3.50812 	 66.0025 	 54.55 	 
H 	 -3.88601 	 66.5068 	 56.2076 	 
H 	 -5.13165 	 66.719 	 55.0112 	 
S 	 -3.6449 	 73.8784 	 52.4292 	 
C 	 -2.49118 	 74.8393 	 51.5187 	 
C 	 -1.29006 	 74.6242 	 52.1018 	 
C 	 -1.19706 	 73.8628 	 53.3124 	 
C 	 -2.46344 	 73.3965 	 53.5932 	 
H 	 -0.459817 	 75.1508 	 51.6869 	 
C 	 0.0792455 	 73.6894 	 54.1957 	 
H 	 -0.317783 	 73.9008 	 55.2128 	 
H 	 0.897059 	 74.4125 	 54.102 	 
C 	 0.86452 	 72.3708 	 54.0324 	 
H 	 1.24389 	 72.3552 	 52.9819 	 
H 	 0.29998 	 71.4709 	 54.2611 	 
C 	 2.13527 	 72.2464 	 54.9619 	 
H 	 2.67877 	 71.294 	 54.9316 	 
H 	 1.70906 	 72.3884 	 55.9784 	 
H 	 2.80594 	 73.1703 	 54.722 	 
H 	 -3.35977 	 70.9202 	 57.918 	 
H 	 -2.53056 	 75.5305 	 50.7 	 
