34

S 	 41.5881 	 10.0864 	 82.1299 	 
C 	 40.0662 	 10.1495 	 82.9323 	 
C 	 40.2956 	 10.4888 	 84.24 	 
C 	 41.5784 	 10.9814 	 84.5327 	 
C 	 42.4221 	 10.8969 	 83.4441 	 
H 	 41.9438 	 11.2949 	 85.5148 	 
C 	 39.1949 	 10.4968 	 85.22 	 
H 	 38.3618 	 10.1794 	 84.5913 	 
H 	 38.8911 	 11.4663 	 85.6698 	 
C 	 39.3028 	 9.49807 	 86.3827 	 
H 	 39.5985 	 8.53007 	 86.0006 	 
H 	 40.0823 	 9.8467 	 87.0996 	 
C 	 38.0319 	 9.26036 	 87.1698 	 
H 	 37.3214 	 8.89937 	 86.479 	 
H 	 38.3661 	 8.52662 	 87.8334 	 
H 	 37.6079 	 10.1392 	 87.6703 	 
S 	 44.7443 	 9.98433 	 82.5626 	 
C 	 46.2421 	 10.7979 	 82.7749 	 
C 	 45.9961 	 11.9827 	 83.3349 	 
C 	 44.6972 	 12.1822 	 83.7559 	 
C 	 43.8695 	 11.1667 	 83.3342 	 
H 	 46.7422 	 12.7124 	 83.4433 	 
C 	 44.3439 	 13.3463 	 84.5787 	 
H 	 45.1739 	 13.3547 	 85.3012 	 
H 	 43.5844 	 13.0269 	 85.3364 	 
C 	 43.8938 	 14.6239 	 83.7787 	 
H 	 44.6853 	 14.8674 	 83.0382 	 
H 	 43.6981 	 15.4886 	 84.4385 	 
C 	 42.6008 	 14.3759 	 83.0897 	 
H 	 42.0454 	 15.2005 	 82.715 	 
H 	 41.8625 	 13.8773 	 83.7877 	 
H 	 42.749 	 13.6771 	 82.2444 	 
H 	 39.1301 	 9.87933 	 82.5167 	 
H 	 47.1624 	 10.4584 	 82.4961 	 
