34

S 	 4.50895 	 -9.33 	 74.6211 	 
C 	 2.91644 	 -8.6056 	 74.339 	 
C 	 2.26004 	 -9.1442 	 73.2598 	 
C 	 3.02938 	 -10.1733 	 72.5831 	 
C 	 4.26296 	 -10.3732 	 73.1472 	 
H 	 2.74248 	 -10.7371 	 71.6778 	 
C 	 0.730853 	 -8.93283 	 72.9984 	 
H 	 0.353239 	 -8.3769 	 73.8461 	 
H 	 0.285157 	 -9.9643 	 73.0737 	 
C 	 0.41375 	 -8.15451 	 71.72 	 
H 	 1.00437 	 -7.26715 	 71.7417 	 
H 	 0.871215 	 -8.70877 	 70.81 	 
C 	 -1.07731 	 -7.9535 	 71.617 	 
H 	 -1.27019 	 -7.14757 	 70.8855 	 
H 	 -1.59584 	 -8.87735 	 71.4505 	 
H 	 -1.47425 	 -7.54696 	 72.5307 	 
S 	 6.86611 	 -10.423 	 72.3092 	 
C 	 7.59653 	 -11.8518 	 71.7859 	 
C 	 6.68986 	 -12.8205 	 71.8089 	 
C 	 5.41906 	 -12.4683 	 72.2124 	 
C 	 5.30715 	 -11.1849 	 72.6314 	 
H 	 7.06043 	 -13.8212 	 71.5135 	 
C 	 4.27628 	 -13.4756 	 72.0246 	 
H 	 4.0834 	 -13.6334 	 70.9418 	 
H 	 3.43598 	 -12.9831 	 72.3983 	 
C 	 4.30459 	 -14.8322 	 72.877 	 
H 	 3.70474 	 -14.682 	 73.7855 	 
H 	 5.33369 	 -14.988 	 73.2849 	 
C 	 3.70927 	 -16.0381 	 72.0528 	 
H 	 2.85519 	 -15.7188 	 71.5091 	 
H 	 3.55242 	 -16.9999 	 72.6358 	 
H 	 4.45509 	 -16.3472 	 71.3287 	 
H 	 2.48611 	 -8.01181 	 75.0957 	 
H 	 8.62971 	 -11.9072 	 71.432 	 
