34

S 	 27.0273 	 -8.56508 	 76.64 	 
C 	 26.9716 	 -9.65774 	 75.3163 	 
C 	 27.1332 	 -10.9911 	 75.6886 	 
C 	 27.1566 	 -11.1562 	 77.1369 	 
C 	 27.0379 	 -9.93582 	 77.7943 	 
H 	 27.2643 	 -12.09 	 77.6455 	 
C 	 27.2558 	 -12.2284 	 74.8289 	 
H 	 26.4258 	 -12.1966 	 74.151 	 
H 	 27.0879 	 -13.0864 	 75.4255 	 
C 	 28.6188 	 -12.335 	 74.0833 	 
H 	 28.8461 	 -11.5418 	 73.3965 	 
H 	 29.4427 	 -12.2684 	 74.8423 	 
C 	 28.764 	 -13.5472 	 73.2434 	 
H 	 27.8591 	 -13.6315 	 72.6187 	 
H 	 29.7053 	 -13.5852 	 72.6621 	 
H 	 28.8902 	 -14.3564 	 73.9165 	 
S 	 26.3761 	 -11.0166 	 80.1564 	 
C 	 26.7474 	 -10.1442 	 81.5936 	 
C 	 27.4181 	 -8.96478 	 81.4459 	 
C 	 27.4184 	 -8.66033 	 80.0029 	 
C 	 27.0042 	 -9.68609 	 79.2323 	 
H 	 27.6255 	 -8.4158 	 82.3278 	 
C 	 27.9899 	 -7.34394 	 79.5515 	 
H 	 27.9827 	 -6.613 	 80.3695 	 
H 	 27.3653 	 -6.96928 	 78.7628 	 
C 	 29.3821 	 -7.40887 	 79.0374 	 
H 	 29.3147 	 -8.07892 	 78.2179 	 
H 	 30.0156 	 -7.79622 	 79.8239 	 
C 	 29.8309 	 -6.10519 	 78.5058 	 
H 	 29.1716 	 -5.71407 	 77.7012 	 
H 	 30.7966 	 -6.21334 	 78.039 	 
H 	 29.9163 	 -5.25769 	 79.2535 	 
H 	 26.9703 	 -9.22255 	 74.3219 	 
H 	 26.646 	 -10.6805 	 82.5374 	 
