34

S 	 -50.8074 	 13.3276 	 78.3505 	 
C 	 -49.3578 	 12.3908 	 78.6023 	 
C 	 -49.5534 	 11.5012 	 79.6266 	 
C 	 -50.7499 	 11.7273 	 80.378 	 
C 	 -51.5888 	 12.7026 	 79.8215 	 
H 	 -50.9191 	 11.1774 	 81.2569 	 
C 	 -48.5291 	 10.4594 	 79.9564 	 
H 	 -48.2575 	 10.1324 	 78.9391 	 
H 	 -48.8903 	 9.55009 	 80.4427 	 
C 	 -47.2111 	 10.7577 	 80.7212 	 
H 	 -46.6341 	 9.87952 	 80.7191 	 
H 	 -46.6751 	 11.4967 	 80.092 	 
C 	 -47.4062 	 11.2573 	 82.2711 	 
H 	 -47.9932 	 10.5756 	 82.8902 	 
H 	 -46.3935 	 11.3222 	 82.8245 	 
H 	 -47.8723 	 12.2494 	 82.2039 	 
S 	 -54.2372 	 13.0712 	 79.3593 	 
C 	 -55.2535 	 13.4379 	 80.7241 	 
C 	 -54.5823 	 13.607 	 81.9124 	 
C 	 -53.1852 	 13.4159 	 81.7002 	 
C 	 -52.8664 	 13.0813 	 80.4081 	 
H 	 -55.1779 	 13.8929 	 82.8379 	 
C 	 -52.2335 	 13.4456 	 82.8833 	 
H 	 -52.2417 	 14.4702 	 83.2481 	 
H 	 -51.226 	 13.3049 	 82.6069 	 
C 	 -52.6143 	 12.5122 	 84.0735 	 
H 	 -52.9168 	 11.4882 	 83.7094 	 
H 	 -53.57 	 12.8692 	 84.4407 	 
C 	 -51.5735 	 12.5021 	 85.2443 	 
H 	 -52.0031 	 12.1233 	 86.162 	 
H 	 -51.148 	 13.428 	 85.5161 	 
H 	 -50.7725 	 11.7878 	 85.0161 	 
H 	 -48.4949 	 12.3787 	 77.9387 	 
H 	 -56.3028 	 13.4788 	 80.7201 	 
