34

S 	 17.1535 	 9.0955 	 88.9743 	 
C 	 18.2482 	 9.43148 	 87.6296 	 
C 	 17.9165 	 10.583 	 87.0349 	 
C 	 16.6666 	 11.1161 	 87.4188 	 
C 	 16.1536 	 10.4357 	 88.514 	 
H 	 16.2502 	 12.052 	 87.1767 	 
C 	 18.8368 	 11.29 	 86.0083 	 
H 	 18.3482 	 11.7485 	 85.155 	 
H 	 19.4419 	 10.5394 	 85.513 	 
C 	 19.8332 	 12.3673 	 86.6523 	 
H 	 20.4962 	 11.9733 	 87.3469 	 
H 	 20.4783 	 12.847 	 85.912 	 
C 	 19.2149 	 13.4217 	 87.4859 	 
H 	 19.9894 	 14.1129 	 87.8116 	 
H 	 18.5997 	 14.105 	 86.936 	 
H 	 18.6449 	 12.9548 	 88.3045 	 
S 	 14.6666 	 12.2612 	 90.0453 	 
C 	 13.0327 	 11.7173 	 90.6417 	 
C 	 12.6731 	 10.5449 	 90.0229 	 
C 	 13.6766 	 10.0536 	 89.1542 	 
C 	 14.9361 	 10.7053 	 89.2205 	 
H 	 11.7644 	 10.0712 	 90.3718 	 
C 	 13.5139 	 8.7634 	 88.4191 	 
H 	 14.0996 	 8.77154 	 87.5354 	 
H 	 12.5353 	 8.76645 	 87.9905 	 
C 	 13.6063 	 7.47888 	 89.2799 	 
H 	 14.5057 	 7.68828 	 89.8755 	 
H 	 13.8289 	 6.70616 	 88.4736 	 
C 	 12.3248 	 7.13904 	 90.0341 	 
H 	 11.4767 	 7.74246 	 89.7192 	 
H 	 12.4751 	 7.105 	 91.102 	 
H 	 11.956 	 6.19259 	 89.7149 	 
H 	 19.1041 	 8.78826 	 87.3494 	 
H 	 12.4374 	 12.2205 	 91.391 	 
