34

S 	 24.5145 	 0.450894 	 84.7616 	 
C 	 25.9976 	 1.40136 	 84.7846 	 
C 	 26.0513 	 2.24669 	 83.6623 	 
C 	 24.7717 	 2.37039 	 83.0544 	 
C 	 23.8912 	 1.39431 	 83.4277 	 
H 	 24.3936 	 3.10611 	 82.3223 	 
C 	 27.2211 	 3.11355 	 83.1959 	 
H 	 27.9865 	 3.13238 	 83.9486 	 
H 	 26.8435 	 4.06726 	 83.0492 	 
C 	 27.7226 	 2.80191 	 81.7373 	 
H 	 28.2172 	 1.81273 	 81.6971 	 
H 	 26.8872 	 2.90254 	 80.9975 	 
C 	 28.6279 	 3.9926 	 81.253 	 
H 	 29.5381 	 4.04973 	 81.8086 	 
H 	 28.8635 	 3.83513 	 80.2063 	 
H 	 28.1761 	 4.99789 	 81.4006 	 
S 	 21.3324 	 1.07841 	 84.295 	 
C 	 20.086 	 0.690581 	 83.0605 	 
C 	 20.5387 	 0.82221 	 81.7706 	 
C 	 21.9223 	 1.22516 	 81.7124 	 
C 	 22.5055 	 1.30478 	 82.9776 	 
H 	 19.8292 	 0.565659 	 80.9304 	 
C 	 22.6693 	 1.39753 	 80.3308 	 
H 	 23.7832 	 1.49296 	 80.2857 	 
H 	 22.1662 	 2.29358 	 79.8987 	 
C 	 22.3742 	 0.212721 	 79.3687 	 
H 	 21.3062 	 0.0125842 	 79.3252 	 
H 	 22.8616 	 -0.597154 	 79.7835 	 
C 	 22.9905 	 0.421246 	 77.9121 	 
H 	 22.7822 	 1.3926 	 77.4865 	 
H 	 22.5245 	 -0.140321 	 77.1217 	 
H 	 24.0621 	 0.251909 	 77.9706 	 
H 	 26.8868 	 1.03943 	 85.2655 	 
H 	 19.1532 	 0.157492 	 83.1069 	 
