34

S 	 9.09901 	 -5.58807 	 89.3799 	 
C 	 9.83902 	 -4.74235 	 90.7487 	 
C 	 11.1231 	 -4.37297 	 90.4235 	 
C 	 11.422 	 -4.75646 	 89.0677 	 
C 	 10.4301 	 -5.29986 	 88.3687 	 
H 	 12.3327 	 -4.54553 	 88.5365 	 
C 	 12.1013 	 -3.51898 	 91.2248 	 
H 	 13.0953 	 -3.50038 	 90.6744 	 
H 	 12.2588 	 -4.10492 	 92.1208 	 
C 	 11.555 	 -2.08006 	 91.5002 	 
H 	 11.4999 	 -1.56552 	 90.521 	 
H 	 10.5484 	 -2.24117 	 92.0212 	 
C 	 12.353 	 -1.11288 	 92.3122 	 
H 	 12.2678 	 -1.34564 	 93.3533 	 
H 	 13.4637 	 -1.09935 	 91.9761 	 
H 	 12.0049 	 -0.054663 	 92.1285 	 
S 	 11.9753 	 -6.82857 	 86.701 	 
C 	 11.6754 	 -6.72626 	 84.9813 	 
C 	 10.4588 	 -6.13978 	 84.7087 	 
C 	 9.85109 	 -5.53677 	 85.8428 	 
C 	 10.5649 	 -5.83 	 87.0187 	 
H 	 10.3093 	 -6.05039 	 83.6804 	 
C 	 8.64841 	 -4.57759 	 85.5723 	 
H 	 8.94851 	 -3.77518 	 86.2377 	 
H 	 7.80539 	 -5.11445 	 86.0298 	 
C 	 8.29812 	 -4.23205 	 84.1741 	 
H 	 7.9788 	 -5.13201 	 83.7045 	 
H 	 9.17809 	 -3.75887 	 83.6346 	 
C 	 7.33343 	 -3.12844 	 84.178 	 
H 	 7.80194 	 -2.19883 	 84.4469 	 
H 	 6.57984 	 -3.43013 	 84.8764 	 
H 	 6.87367 	 -2.9499 	 83.1663 	 
H 	 9.28195 	 -4.24859 	 91.5088 	 
H 	 12.2852 	 -7.11878 	 84.1483 	 
