34

S 	 0.722771 	 -26.9297 	 82.4175 	 
C 	 0.202879 	 -27.9004 	 81.0233 	 
C 	 -0.233637 	 -29.1612 	 81.4948 	 
C 	 -0.516471 	 -29.1481 	 82.8879 	 
C 	 -0.179209 	 -27.9632 	 83.5331 	 
H 	 -0.986082 	 -30.0037 	 83.3817 	 
C 	 -0.657328 	 -30.3494 	 80.6015 	 
H 	 -0.392167 	 -29.9866 	 79.5917 	 
H 	 -1.6692 	 -30.3199 	 80.6934 	 
C 	 -0.0702212 	 -31.7474 	 80.8773 	 
H 	 0.197302 	 -32.1079 	 79.9464 	 
H 	 0.862345 	 -31.5681 	 81.4141 	 
C 	 -0.98726 	 -32.6988 	 81.687 	 
H 	 -1.21817 	 -32.4624 	 82.6877 	 
H 	 -1.93754 	 -32.8045 	 81.1557 	 
H 	 -0.571034 	 -33.6903 	 81.6159 	 
S 	 1.08877 	 -27.4576 	 85.9593 	 
C 	 0.225392 	 -26.8323 	 87.3168 	 
C 	 -1.13594 	 -26.9608 	 87.1022 	 
C 	 -1.45098 	 -27.198 	 85.7146 	 
C 	 -0.344419 	 -27.5842 	 84.9505 	 
H 	 -1.87067 	 -26.7929 	 87.8608 	 
C 	 -2.87936 	 -27.2144 	 85.2644 	 
H 	 -3.53337 	 -26.9773 	 86.1163 	 
H 	 -3.06751 	 -28.2327 	 85.0255 	 
C 	 -3.31266 	 -26.3587 	 84.0896 	 
H 	 -4.41431 	 -26.4048 	 84.0365 	 
H 	 -2.7567 	 -26.7727 	 83.2796 	 
C 	 -2.9351 	 -24.9258 	 84.1259 	 
H 	 -3.17923 	 -24.3766 	 83.2297 	 
H 	 -1.87364 	 -24.8569 	 84.3529 	 
H 	 -3.38439 	 -24.4144 	 84.9139 	 
H 	 0.673032 	 -27.6639 	 80.0536 	 
H 	 0.748532 	 -26.7758 	 88.2797 	 
