34

S 	 -14.4102 	 -11.551 	 91.035 	 
C 	 -15.7826 	 -10.4972 	 90.8631 	 
C 	 -15.6277 	 -9.60989 	 89.809 	 
C 	 -14.425 	 -9.86941 	 89.1006 	 
C 	 -13.6358 	 -10.9109 	 89.5724 	 
H 	 -13.9319 	 -9.27191 	 88.2983 	 
C 	 -16.5657 	 -8.47036 	 89.5989 	 
H 	 -16.72 	 -7.91393 	 90.5755 	 
H 	 -17.5007 	 -8.9687 	 89.2313 	 
C 	 -16.1492 	 -7.41704 	 88.5032 	 
H 	 -15.2278 	 -6.91705 	 88.7669 	 
H 	 -16.0393 	 -8.04742 	 87.5846 	 
C 	 -17.1777 	 -6.33016 	 88.3314 	 
H 	 -18.1892 	 -6.67175 	 88.0823 	 
H 	 -17.2692 	 -5.68247 	 89.1666 	 
H 	 -16.855 	 -5.74452 	 87.4558 	 
S 	 -11.1545 	 -11.6021 	 90.6192 	 
C 	 -9.86002 	 -11.892 	 89.4635 	 
C 	 -10.2717 	 -11.73 	 88.1789 	 
C 	 -11.6099 	 -11.3823 	 88.0093 	 
C 	 -12.244 	 -11.2179 	 89.2788 	 
H 	 -9.58611 	 -11.818 	 87.3619 	 
C 	 -12.2765 	 -11.0446 	 86.7371 	 
H 	 -13.3467 	 -11.1295 	 86.8691 	 
H 	 -11.9745 	 -11.8381 	 86.022 	 
C 	 -11.8966 	 -9.75506 	 86.0579 	 
H 	 -10.8449 	 -9.4711 	 86.0946 	 
H 	 -12.4229 	 -8.84977 	 86.4809 	 
C 	 -12.3124 	 -9.72518 	 84.53 	 
H 	 -11.7522 	 -10.5317 	 83.9497 	 
H 	 -12.0069 	 -8.73691 	 84.1276 	 
H 	 -13.3613 	 -9.88108 	 84.353 	 
H 	 -16.5536 	 -10.3554 	 91.6369 	 
H 	 -8.78547 	 -12.0063 	 89.7974 	 
