34

S 	 -52.7037 	 43.1384 	 108.352 	 
C 	 -51.7373 	 44.5815 	 108.121 	 
C 	 -52.4514 	 45.5257 	 107.404 	 
C 	 -53.8007 	 45.1398 	 107.124 	 
C 	 -54.1628 	 43.9624 	 107.735 	 
H 	 -54.5526 	 45.7651 	 106.644 	 
C 	 -51.8112 	 46.7855 	 106.849 	 
H 	 -51.4509 	 46.6404 	 105.768 	 
H 	 -50.9272 	 46.8905 	 107.376 	 
C 	 -52.6598 	 48.0569 	 107.098 	 
H 	 -53.479 	 48.0547 	 106.323 	 
H 	 -53.2205 	 48.0065 	 108.043 	 
C 	 -51.9084 	 49.3597 	 106.967 	 
H 	 -51.2463 	 49.4425 	 107.849 	 
H 	 -51.2593 	 49.4293 	 106.103 	 
H 	 -52.6604 	 50.1467 	 107.063 	 
S 	 -55.6903 	 41.8019 	 107.057 	 
C 	 -57.4124 	 41.8297 	 107.288 	 
C 	 -57.7684 	 42.9473 	 108.076 	 
C 	 -56.6073 	 43.7943 	 108.371 	 
C 	 -55.4252 	 43.3354 	 107.789 	 
H 	 -58.7694 	 43.1428 	 108.378 	 
C 	 -56.636 	 44.982 	 109.269 	 
H 	 -55.7999 	 45.6529 	 109.049 	 
H 	 -56.4814 	 44.6269 	 110.283 	 
C 	 -57.8477 	 45.8288 	 109.167 	 
H 	 -57.9289 	 46.6902 	 109.838 	 
H 	 -58.6624 	 45.1591 	 109.575 	 
C 	 -58.0154 	 46.3807 	 107.711 	 
H 	 -58.238 	 45.6878 	 106.911 	 
H 	 -57.1379 	 46.9886 	 107.348 	 
H 	 -58.8675 	 47.0236 	 107.653 	 
H 	 -50.6763 	 44.7607 	 108.336 	 
H 	 -58.0753 	 40.9996 	 107.199 	 
