34

S 	 -44.9273 	 25.546 	 84.537 	 
C 	 -46.4091 	 25.318 	 85.4313 	 
C 	 -46.2753 	 24.3102 	 86.3498 	 
C 	 -45.1796 	 23.4896 	 86.1304 	 
C 	 -44.3574 	 24.0042 	 85.1956 	 
H 	 -44.8692 	 22.6035 	 86.6847 	 
C 	 -47.2897 	 23.9445 	 87.5098 	 
H 	 -47.7231 	 22.9239 	 87.3013 	 
H 	 -48.2171 	 24.6559 	 87.3823 	 
C 	 -46.7128 	 23.9484 	 88.933 	 
H 	 -47.3501 	 23.3446 	 89.5308 	 
H 	 -45.7686 	 23.4029 	 89.0411 	 
C 	 -46.524 	 25.3285 	 89.4464 	 
H 	 -45.7572 	 25.7875 	 88.8007 	 
H 	 -47.4367 	 25.8527 	 89.3457 	 
H 	 -46.0826 	 25.5231 	 90.4598 	 
S 	 -42.6036 	 23.5602 	 83.1263 	 
C 	 -40.9081 	 23.4525 	 83.5099 	 
C 	 -40.7126 	 23.1745 	 84.802 	 
C 	 -41.909 	 23.3005 	 85.6646 	 
C 	 -43.0205 	 23.5949 	 84.8763 	 
H 	 -39.7627 	 22.9279 	 85.1569 	 
C 	 -41.8878 	 23.0984 	 87.1994 	 
H 	 -41.9292 	 21.9949 	 87.0455 	 
H 	 -42.7475 	 23.547 	 87.6487 	 
C 	 -40.594 	 23.4955 	 87.9166 	 
H 	 -40.4302 	 24.5737 	 87.7997 	 
H 	 -39.8038 	 23.0014 	 87.4104 	 
C 	 -40.54 	 23.3286 	 89.4161 	 
H 	 -39.568 	 23.543 	 89.9416 	 
H 	 -40.8577 	 22.3259 	 89.6961 	 
H 	 -41.2989 	 23.9682 	 89.8947 	 
H 	 -47.2269 	 26.0418 	 85.5724 	 
H 	 -40.1682 	 23.2686 	 82.7667 	 
