34

S 	 -2.58136 	 -12.9146 	 84.9201 	 
C 	 -3.98212 	 -14.0336 	 84.6727 	 
C 	 -3.62025 	 -15.1033 	 83.8622 	 
C 	 -2.28003 	 -14.9981 	 83.343 	 
C 	 -1.63209 	 -13.882 	 83.8351 	 
H 	 -1.7168 	 -15.5519 	 82.5694 	 
C 	 -4.51108 	 -16.2945 	 83.4779 	 
H 	 -5.3641 	 -16.2654 	 84.1664 	 
H 	 -4.00555 	 -17.2408 	 83.4352 	 
C 	 -5.26515 	 -16.1969 	 82.0962 	 
H 	 -5.8596 	 -17.1781 	 81.9467 	 
H 	 -5.98426 	 -15.3977 	 82.1543 	 
C 	 -4.2074 	 -15.9658 	 80.9796 	 
H 	 -4.72329 	 -16.0673 	 79.9687 	 
H 	 -3.71836 	 -15.0192 	 81.1195 	 
H 	 -3.4005 	 -16.7307 	 81.0599 	 
S 	 1.05579 	 -14.0861 	 84.4242 	 
C 	 2.21809 	 -13.1309 	 83.5236 	 
C 	 1.62537 	 -12.4341 	 82.4952 	 
C 	 0.169748 	 -12.6004 	 82.4937 	 
C 	 -0.274454 	 -13.4427 	 83.5008 	 
H 	 2.19337 	 -11.8113 	 81.8922 	 
C 	 -0.749351 	 -11.9425 	 81.461 	 
H 	 -0.378142 	 -10.9526 	 81.6123 	 
H 	 -1.73659 	 -11.6767 	 81.7859 	 
C 	 -0.660541 	 -12.4821 	 80.0641 	 
H 	 0.351283 	 -12.5885 	 79.7476 	 
H 	 -1.14483 	 -11.8363 	 79.342 	 
C 	 -1.41597 	 -13.7988 	 79.8614 	 
H 	 -1.01711 	 -14.4552 	 80.647 	 
H 	 -1.34066 	 -14.3447 	 78.9103 	 
H 	 -2.46525 	 -13.7073 	 80.0414 	 
H 	 -4.91097 	 -13.8881 	 85.3194 	 
H 	 3.24207 	 -13.0246 	 83.8099 	 
