34

S 	 50.0968 	 9.67353 	 92.1503 	 
C 	 49.6499 	 10.9243 	 93.3427 	 
C 	 49.2684 	 12.1105 	 92.8194 	 
C 	 49.1201 	 12.0035 	 91.3734 	 
C 	 49.4413 	 10.7664 	 90.931 	 
H 	 48.8247 	 12.7465 	 90.6809 	 
C 	 48.7457 	 13.2575 	 93.6383 	 
H 	 47.8894 	 12.9252 	 94.279 	 
H 	 48.3862 	 14.0419 	 92.9327 	 
C 	 49.7338 	 13.9595 	 94.5171 	 
H 	 49.3498 	 14.8017 	 95.1202 	 
H 	 50.0939 	 13.2773 	 95.257 	 
C 	 50.9596 	 14.4392 	 93.6492 	 
H 	 50.6959 	 15.3573 	 93.1683 	 
H 	 51.8261 	 14.5793 	 94.317 	 
H 	 51.161 	 13.7336 	 92.8279 	 
S 	 51.0317 	 9.7159 	 89.0025 	 
C 	 50.4765 	 9.60403 	 87.3412 	 
C 	 49.1462 	 9.90747 	 87.2673 	 
C 	 48.5223 	 10.3979 	 88.4532 	 
C 	 49.4524 	 10.2193 	 89.5392 	 
H 	 48.6481 	 9.91398 	 86.3033 	 
C 	 47.0471 	 10.7909 	 88.4905 	 
H 	 46.7806 	 11.5284 	 87.6996 	 
H 	 46.8442 	 11.2726 	 89.4294 	 
C 	 46.0546 	 9.59676 	 88.4498 	 
H 	 46.4534 	 8.74707 	 89.0785 	 
H 	 45.9807 	 9.29281 	 87.4118 	 
C 	 44.6292 	 10.0526 	 88.8422 	 
H 	 43.8596 	 9.36784 	 88.4333 	 
H 	 44.3984 	 11.0151 	 88.3048 	 
H 	 44.5674 	 10.1608 	 89.9693 	 
H 	 49.5836 	 10.6973 	 94.3905 	 
H 	 50.9336 	 9.14233 	 86.5336 	 
