34

S 	 -35.7598 	 24.4256 	 78.7837 	 
C 	 -37.3419 	 25.1127 	 78.435 	 
C 	 -37.9357 	 24.4025 	 77.4091 	 
C 	 -37.2239 	 23.1998 	 77.0719 	 
C 	 -36.0495 	 22.9976 	 77.7792 	 
H 	 -37.4137 	 22.4351 	 76.3289 	 
C 	 -39.1555 	 24.9147 	 76.6597 	 
H 	 -39.127 	 24.1693 	 75.8435 	 
H 	 -38.9814 	 25.9663 	 76.2071 	 
C 	 -40.4913 	 24.8747 	 77.5007 	 
H 	 -41.3028 	 24.6419 	 76.8314 	 
H 	 -40.3928 	 24.0635 	 78.2391 	 
C 	 -40.8469 	 26.1339 	 78.1905 	 
H 	 -40.0689 	 26.3788 	 78.9087 	 
H 	 -40.9258 	 27.0073 	 77.5237 	 
H 	 -41.7144 	 26.0224 	 78.7865 	 
S 	 -33.5962 	 22.5205 	 76.9054 	 
C 	 -33.0127 	 20.9495 	 76.6548 	 
C 	 -33.9786 	 20.0012 	 76.7285 	 
C 	 -35.1769 	 20.5539 	 77.2902 	 
C 	 -35.1014 	 21.9228 	 77.5465 	 
H 	 -33.6248 	 18.9444 	 76.4558 	 
C 	 -36.3423 	 19.6675 	 77.6839 	 
H 	 -36.0002 	 18.6601 	 77.3758 	 
H 	 -37.2805 	 19.9789 	 77.1598 	 
C 	 -36.5809 	 19.3556 	 79.1578 	 
H 	 -36.437 	 20.2857 	 79.7027 	 
H 	 -35.746 	 18.6025 	 79.2993 	 
C 	 -38.0048 	 18.6957 	 79.3998 	 
H 	 -38.0353 	 18.0012 	 80.2011 	 
H 	 -38.254 	 18.1242 	 78.5104 	 
H 	 -38.7819 	 19.4721 	 79.5695 	 
H 	 -37.6565 	 26.0974 	 78.7211 	 
H 	 -32.0503 	 20.6027 	 76.394 	 
