34

S 	 -108.882 	 40.7227 	 129.773 	 
C 	 -108.241 	 39.4969 	 130.859 	 
C 	 -107.902 	 38.4049 	 130.047 	 
C 	 -108.218 	 38.5578 	 128.667 	 
C 	 -108.868 	 39.682 	 128.366 	 
H 	 -108.106 	 37.9305 	 127.823 	 
C 	 -107.162 	 37.2526 	 130.65 	 
H 	 -107.865 	 36.4454 	 130.768 	 
H 	 -106.856 	 37.5202 	 131.656 	 
C 	 -105.954 	 36.671 	 129.838 	 
H 	 -105.822 	 35.6288 	 130.127 	 
H 	 -106.174 	 36.448 	 128.798 	 
C 	 -104.718 	 37.5958 	 130.011 	 
H 	 -104.821 	 38.4536 	 129.28 	 
H 	 -104.698 	 38.0407 	 131.044 	 
H 	 -103.798 	 37.0627 	 129.807 	 
S 	 -108.449 	 41.4196 	 126.165 	 
C 	 -109.413 	 41.1717 	 124.788 	 
C 	 -110.377 	 40.1543 	 124.874 	 
C 	 -110.223 	 39.4863 	 126.123 	 
C 	 -109.339 	 40.0571 	 127.013 	 
H 	 -110.979 	 39.9531 	 124.019 	 
C 	 -111.113 	 38.2526 	 126.311 	 
H 	 -110.716 	 37.4416 	 126.936 	 
H 	 -111.109 	 37.7226 	 125.386 	 
C 	 -112.657 	 38.4357 	 126.687 	 
H 	 -113.039 	 39.2079 	 126.047 	 
H 	 -112.733 	 38.7983 	 127.755 	 
C 	 -113.414 	 37.122 	 126.39 	 
H 	 -113.702 	 37.043 	 125.354 	 
H 	 -114.238 	 37.1589 	 127.106 	 
H 	 -112.819 	 36.3121 	 126.652 	 
H 	 -107.782 	 39.6907 	 131.868 	 
H 	 -109.343 	 41.7828 	 123.906 	 
