34

S 	 -29.8929 	 71.6113 	 159.122 	 
C 	 -28.4054 	 72.0013 	 160.024 	 
C 	 -28.6566 	 72.7878 	 161.162 	 
C 	 -30.088 	 72.8491 	 161.392 	 
C 	 -30.8802 	 72.2642 	 160.384 	 
H 	 -30.5001 	 73.3837 	 162.236 	 
C 	 -27.6034 	 73.2791 	 162.14 	 
H 	 -27.7266 	 74.347 	 162.159 	 
H 	 -26.6512 	 72.9967 	 161.634 	 
C 	 -27.7023 	 72.7971 	 163.674 	 
H 	 -28.563 	 73.2074 	 164.243 	 
H 	 -27.7237 	 71.6818 	 163.78 	 
C 	 -26.468 	 73.1401 	 164.393 	 
H 	 -26.3476 	 72.7119 	 165.385 	 
H 	 -25.5782 	 72.7691 	 163.831 	 
H 	 -26.368 	 74.1572 	 164.609 	 
S 	 -33.1356 	 70.8229 	 159.91 	 
C 	 -34.6117 	 71.7097 	 159.737 	 
C 	 -34.5381 	 73.0026 	 160.1 	 
C 	 -33.2202 	 73.3199 	 160.499 	 
C 	 -32.3356 	 72.2753 	 160.354 	 
H 	 -35.4467 	 73.5677 	 160.041 	 
C 	 -32.9718 	 74.7755 	 160.585 	 
H 	 -31.9737 	 74.8478 	 161.03 	 
H 	 -33.7877 	 75.2511 	 161.229 	 
C 	 -33.0305 	 75.4722 	 159.178 	 
H 	 -32.7723 	 76.5233 	 159.299 	 
H 	 -34.0579 	 75.7073 	 158.878 	 
C 	 -32.2903 	 74.7767 	 157.985 	 
H 	 -32.5498 	 73.7669 	 157.679 	 
H 	 -31.2276 	 74.7218 	 158.248 	 
H 	 -32.3709 	 75.4702 	 157.164 	 
H 	 -27.4276 	 71.6155 	 159.908 	 
H 	 -35.5377 	 71.161 	 159.685 	 
