34

S 	 -12.379 	 41.3963 	 32.5872 	 
C 	 -13.7122 	 41.3034 	 33.7185 	 
C 	 -13.6282 	 40.2074 	 34.524 	 
C 	 -12.3979 	 39.4613 	 34.3237 	 
C 	 -11.6704 	 39.953 	 33.2688 	 
H 	 -11.9825 	 38.6567 	 34.7968 	 
C 	 -14.5958 	 39.7655 	 35.6233 	 
H 	 -15.517 	 40.3815 	 35.7249 	 
H 	 -14.184 	 39.8485 	 36.5914 	 
C 	 -15.017 	 38.2561 	 35.531 	 
H 	 -15.8453 	 38.1135 	 34.7444 	 
H 	 -14.2079 	 37.5242 	 35.2707 	 
C 	 -15.6866 	 37.8278 	 36.8626 	 
H 	 -15.197 	 38.2578 	 37.738 	 
H 	 -16.6723 	 38.0807 	 36.7678 	 
H 	 -15.554 	 36.7633 	 37.0177 	 
S 	 -9.04127 	 40.5662 	 33.4466 	 
C 	 -7.85911 	 39.7351 	 32.5865 	 
C 	 -8.43034 	 38.6604 	 31.9183 	 
C 	 -9.81233 	 38.5725 	 32.078 	 
C 	 -10.3533 	 39.6124 	 32.8416 	 
H 	 -7.78656 	 37.8889 	 31.4695 	 
C 	 -10.6778 	 37.5058 	 31.5668 	 
H 	 -10.5187 	 37.1461 	 30.5418 	 
H 	 -11.6325 	 38.0561 	 31.544 	 
C 	 -11.0957 	 36.381 	 32.4942 	 
H 	 -11.8729 	 35.7568 	 32.1377 	 
H 	 -11.4315 	 36.7135 	 33.462 	 
C 	 -9.91711 	 35.4778 	 32.8956 	 
H 	 -9.55667 	 34.8571 	 32.0357 	 
H 	 -10.3115 	 34.7843 	 33.6681 	 
H 	 -9.05045 	 36.0982 	 33.255 	 
H 	 -14.3913 	 42.0687 	 33.9406 	 
H 	 -6.82191 	 39.9625 	 32.643 	 
