34

S 	 12.1692 	 -3.21927 	 64.3685 	 
C 	 11.5225 	 -4.53347 	 63.4106 	 
C 	 11.9459 	 -5.72539 	 63.962 	 
C 	 12.718 	 -5.60986 	 65.164 	 
C 	 13.0117 	 -4.31981 	 65.5301 	 
H 	 13.1523 	 -6.46583 	 65.7732 	 
C 	 11.5828 	 -6.99912 	 63.3421 	 
H 	 10.5019 	 -6.74948 	 63.2081 	 
H 	 11.5925 	 -7.8301 	 64.0475 	 
C 	 12.2086 	 -7.24554 	 61.9604 	 
H 	 12.1342 	 -6.28082 	 61.4194 	 
H 	 13.291 	 -7.53702 	 61.9723 	 
C 	 11.3539 	 -8.20844 	 61.1658 	 
H 	 11.3718 	 -9.17292 	 61.6441 	 
H 	 10.3079 	 -7.80628 	 60.8772 	 
H 	 11.936 	 -8.35232 	 60.2599 	 
S 	 13.3013 	 -4.54171 	 68.3036 	 
C 	 14.7467 	 -3.83384 	 69.0945 	 
C 	 15.4552 	 -3.1701 	 68.1363 	 
C 	 14.9445 	 -3.25965 	 66.7895 	 
C 	 13.7785 	 -3.96505 	 66.7294 	 
H 	 16.3482 	 -2.65765 	 68.4829 	 
C 	 15.5116 	 -2.31699 	 65.7413 	 
H 	 15.0498 	 -2.60053 	 64.7885 	 
H 	 16.5765 	 -2.52932 	 65.5561 	 
C 	 15.3253 	 -0.790485 	 65.9867 	 
H 	 16.0344 	 -0.290952 	 65.3002 	 
H 	 15.6705 	 -0.542682 	 67.0046 	 
C 	 13.925 	 -0.250954 	 65.7753 	 
H 	 13.856 	 0.811968 	 65.9804 	 
H 	 13.2442 	 -0.792203 	 66.4544 	 
H 	 13.6591 	 -0.389084 	 64.7161 	 
H 	 11.0073 	 -4.44699 	 62.4824 	 
H 	 15.0368 	 -3.74888 	 70.1294 	 
