34

S 	 58.9252 	 -10.2738 	 91.0708 	 
C 	 58.6404 	 -8.5708 	 91.2534 	 
C 	 59.2916 	 -7.87475 	 90.2557 	 
C 	 60.0064 	 -8.62761 	 89.3445 	 
C 	 59.9969 	 -9.97182 	 89.6593 	 
H 	 60.5028 	 -8.22722 	 88.4696 	 
C 	 59.2672 	 -6.36683 	 90.0378 	 
H 	 58.3532 	 -5.91242 	 90.412 	 
H 	 59.2227 	 -6.06893 	 88.9431 	 
C 	 60.3925 	 -5.64425 	 90.8009 	 
H 	 60.2883 	 -4.60407 	 90.9246 	 
H 	 60.3278 	 -5.83825 	 91.8373 	 
C 	 61.7863 	 -6.08596 	 90.4836 	 
H 	 62.3553 	 -5.36289 	 91.0671 	 
H 	 62.0704 	 -7.09065 	 90.8405 	 
H 	 62.1007 	 -5.99235 	 89.4037 	 
S 	 59.6967 	 -12.4844 	 88.5915 	 
C 	 61.1016 	 -13.3299 	 87.8713 	 
C 	 62.1908 	 -12.5726 	 87.7692 	 
C 	 61.9661 	 -11.2627 	 88.3753 	 
C 	 60.6862 	 -11.1162 	 88.975 	 
H 	 63.0982 	 -13.058 	 87.3864 	 
C 	 63.0395 	 -10.198 	 88.5556 	 
H 	 62.8109 	 -9.30416 	 87.984 	 
H 	 63.9495 	 -10.5387 	 88.0632 	 
C 	 63.3789 	 -9.67481 	 89.9492 	 
H 	 62.5614 	 -9.1088 	 90.3313 	 
H 	 64.3239 	 -9.11805 	 89.8227 	 
C 	 63.5075 	 -10.8026 	 90.963 	 
H 	 63.7284 	 -11.7193 	 90.4269 	 
H 	 62.569 	 -10.8962 	 91.5237 	 
H 	 64.2861 	 -10.5594 	 91.6514 	 
H 	 58.0419 	 -8.22334 	 92.1232 	 
H 	 61.0921 	 -14.3846 	 87.5384 	 
