34

S 	 4.04598 	 5.04189 	 83.7066 	 
C 	 5.43512 	 4.22613 	 83.2111 	 
C 	 6.48449 	 5.03819 	 82.8242 	 
C 	 6.13604 	 6.41208 	 83.0255 	 
C 	 4.86936 	 6.58271 	 83.5453 	 
H 	 6.71188 	 7.26987 	 82.8375 	 
C 	 7.92857 	 4.5333 	 82.5791 	 
H 	 8.1635 	 3.7021 	 83.1269 	 
H 	 8.54129 	 5.30346 	 82.8797 	 
C 	 8.18515 	 4.16051 	 81.0486 	 
H 	 7.63854 	 3.21355 	 80.7865 	 
H 	 7.80381 	 4.95239 	 80.479 	 
C 	 9.66821 	 3.99888 	 80.6792 	 
H 	 9.77886 	 3.58423 	 79.6869 	 
H 	 10.2201 	 4.9325 	 80.7833 	 
H 	 10.1377 	 3.37433 	 81.4083 	 
S 	 4.09231 	 8.95032 	 82.3465 	 
C 	 3.10218 	 10.127 	 83.1161 	 
C 	 2.64059 	 9.67463 	 84.2751 	 
C 	 3.18621 	 8.36804 	 84.6001 	 
C 	 4.14032 	 7.89587 	 83.7086 	 
H 	 1.90374 	 10.2853 	 84.8113 	 
C 	 3.04104 	 7.7931 	 86.0166 	 
H 	 3.48098 	 6.76771 	 85.9995 	 
H 	 1.96535 	 7.70137 	 86.1731 	 
C 	 3.75014 	 8.58405 	 87.1316 	 
H 	 3.61686 	 7.87397 	 87.9595 	 
H 	 3.15341 	 9.43438 	 87.4127 	 
C 	 5.2423 	 8.80533 	 86.8742 	 
H 	 5.77713 	 7.86632 	 86.6433 	 
H 	 5.70594 	 9.34995 	 87.7335 	 
H 	 5.38171 	 9.44506 	 86.0025 	 
H 	 5.39374 	 3.11768 	 83.2472 	 
H 	 2.80325 	 11.1463 	 82.7536 	 
