34

S 	 50.7603 	 28.2294 	 43.1559 	 
C 	 52.2499 	 28.669 	 42.4561 	 
C 	 53.3188 	 28.1826 	 43.2179 	 
C 	 52.8429 	 27.5664 	 44.4114 	 
C 	 51.4968 	 27.3755 	 44.424 	 
H 	 53.4948 	 27.3728 	 45.2389 	 
C 	 54.7957 	 28.3763 	 42.9491 	 
H 	 54.8753 	 29.0353 	 42.077 	 
H 	 55.3124 	 27.4606 	 42.5655 	 
C 	 55.575 	 28.9733 	 44.1066 	 
H 	 55.1336 	 29.961 	 44.3514 	 
H 	 55.5848 	 28.4094 	 45.0599 	 
C 	 57.0674 	 29.2012 	 43.7288 	 
H 	 57.1849 	 30.0253 	 43.0811 	 
H 	 57.6086 	 29.4912 	 44.7026 	 
H 	 57.5338 	 28.3785 	 43.1794 	 
S 	 49.1062 	 27.6765 	 45.9267 	 
C 	 48.6471 	 26.3539 	 47.0159 	 
C 	 49.554 	 25.2951 	 47.029 	 
C 	 50.7003 	 25.5876 	 46.172 	 
C 	 50.5995 	 26.8034 	 45.4279 	 
H 	 49.4721 	 24.3748 	 47.6765 	 
C 	 51.8664 	 24.6133 	 46.1301 	 
H 	 52.7777 	 25.141 	 45.766 	 
H 	 51.5461 	 23.8499 	 45.3885 	 
C 	 52.4008 	 23.967 	 47.4276 	 
H 	 51.6147 	 23.37 	 47.8372 	 
H 	 52.7153 	 24.7215 	 48.2022 	 
C 	 53.6632 	 23.0432 	 47.194 	 
H 	 54.362 	 23.5598 	 46.6129 	 
H 	 53.3186 	 22.1667 	 46.5557 	 
H 	 54.1268 	 22.6372 	 48.122 	 
H 	 52.3972 	 29.3384 	 41.5544 	 
H 	 47.6768 	 26.4399 	 47.542 	 
