34

S 	 68.0474 	 18.0636 	 71.8631 	 
C 	 69.0168 	 19.4141 	 71.3357 	 
C 	 69.5957 	 20.0535 	 72.4171 	 
C 	 69.2467 	 19.4416 	 73.6851 	 
C 	 68.4674 	 18.3128 	 73.5435 	 
H 	 69.5928 	 19.8507 	 74.6207 	 
C 	 70.5716 	 21.1862 	 72.4742 	 
H 	 70.9495 	 21.4909 	 71.5342 	 
H 	 71.4272 	 20.7358 	 72.9961 	 
C 	 70.1395 	 22.4835 	 73.166 	 
H 	 69.4343 	 22.3173 	 74.0028 	 
H 	 70.984 	 23.019 	 73.6531 	 
C 	 69.3416 	 23.5517 	 72.3222 	 
H 	 70.042 	 23.9369 	 71.6058 	 
H 	 68.4933 	 23.182 	 71.8281 	 
H 	 69.0485 	 24.4528 	 72.9176 	 
S 	 66.2719 	 17.686 	 75.1265 	 
C 	 66.3394 	 16.298 	 76.15 	 
C 	 67.6917 	 15.8905 	 76.2313 	 
C 	 68.5743 	 16.6163 	 75.3892 	 
C 	 67.8745 	 17.4874 	 74.5673 	 
H 	 68.0136 	 15.0839 	 76.9117 	 
C 	 70.096 	 16.3294 	 75.2706 	 
H 	 70.6493 	 16.8974 	 74.485 	 
H 	 70.2741 	 15.2562 	 75.158 	 
C 	 70.7355 	 16.889 	 76.567 	 
H 	 70.4575 	 16.2673 	 77.4112 	 
H 	 70.322 	 17.8903 	 76.744 	 
C 	 72.2442 	 16.8499 	 76.4024 	 
H 	 72.6498 	 17.5158 	 75.6703 	 
H 	 72.706 	 15.8782 	 76.26 	 
H 	 72.7306 	 17.0815 	 77.3662 	 
H 	 69.113 	 19.7599 	 70.3087 	 
H 	 65.5779 	 15.8327 	 76.6987 	 
