34

S 	 -81.7809 	 47.4215 	 137.299 	 
C 	 -81.7194 	 46.6026 	 138.873 	 
C 	 -82.1584 	 47.449 	 139.897 	 
C 	 -82.0853 	 48.8002 	 139.43 	 
C 	 -82.0076 	 48.973 	 138.068 	 
H 	 -82.2303 	 49.7356 	 139.98 	 
C 	 -82.2321 	 47.1355 	 141.39 	 
H 	 -82.6538 	 46.1809 	 141.49 	 
H 	 -82.9947 	 47.7744 	 141.873 	 
C 	 -80.9421 	 47.2052 	 142.184 	 
H 	 -80.6447 	 48.2742 	 142.31 	 
H 	 -81.1778 	 46.852 	 143.238 	 
C 	 -79.643 	 46.5811 	 141.552 	 
H 	 -79.2147 	 47.3641 	 140.883 	 
H 	 -78.9816 	 46.354 	 142.362 	 
H 	 -79.7755 	 45.6791 	 141.017 	 
S 	 -83.831 	 50.8572 	 137.017 	 
C 	 -83.1408 	 52.1801 	 136.097 	 
C 	 -81.7804 	 52.13 	 136.092 	 
C 	 -81.161 	 51.0598 	 136.84 	 
C 	 -82.1346 	 50.1951 	 137.28 	 
H 	 -81.2285 	 52.9189 	 135.684 	 
C 	 -79.6634 	 50.8961 	 137.018 	 
H 	 -79.2354 	 50.8453 	 136.002 	 
H 	 -79.2768 	 49.9219 	 137.386 	 
C 	 -78.8896 	 51.9928 	 137.832 	 
H 	 -78.8963 	 52.98 	 137.275 	 
H 	 -77.8494 	 51.7367 	 137.926 	 
C 	 -79.4783 	 52.2878 	 139.266 	 
H 	 -79.6778 	 51.402 	 139.886 	 
H 	 -80.419 	 52.7424 	 139.174 	 
H 	 -78.8452 	 52.8645 	 140.046 	 
H 	 -81.4874 	 45.5072 	 139.042 	 
H 	 -83.727 	 52.9635 	 135.612 	 
