34

S 	 7.87124 	 21.3091 	 55.2364 	 
C 	 9.02775 	 22.6134 	 54.967 	 
C 	 9.14453 	 23.3594 	 56.0957 	 
C 	 8.27852 	 22.9202 	 57.1399 	 
C 	 7.60864 	 21.7635 	 56.8481 	 
H 	 8.12221 	 23.3796 	 58.1334 	 
C 	 10.2044 	 24.4132 	 56.3672 	 
H 	 11.0807 	 24.092 	 55.7472 	 
H 	 10.604 	 24.4692 	 57.3895 	 
C 	 10.0178 	 25.8101 	 55.8282 	 
H 	 10.9817 	 26.3332 	 55.7243 	 
H 	 9.56788 	 25.6694 	 54.805 	 
C 	 9.11863 	 26.6377 	 56.7645 	 
H 	 8.67524 	 27.5139 	 56.3486 	 
H 	 8.22064 	 26.0187 	 56.9577 	 
H 	 9.5496 	 26.6893 	 57.7606 	 
S 	 5.16911 	 20.636 	 57.0106 	 
C 	 4.5856 	 20.0479 	 58.6062 	 
C 	 5.53438 	 20.1719 	 59.6565 	 
C 	 6.75599 	 20.7091 	 59.1175 	 
C 	 6.7087 	 21.0351 	 57.721 	 
H 	 5.39787 	 19.9162 	 60.6798 	 
C 	 7.93185 	 20.9667 	 60.0044 	 
H 	 7.66986 	 20.8028 	 61.0489 	 
H 	 8.26692 	 21.9913 	 59.912 	 
C 	 9.10436 	 19.9983 	 59.6099 	 
H 	 9.26293 	 19.9729 	 58.5246 	 
H 	 8.7981 	 18.9835 	 59.7726 	 
C 	 10.3595 	 20.2976 	 60.3944 	 
H 	 11.1287 	 19.5639 	 60.2466 	 
H 	 9.98417 	 20.3422 	 61.4055 	 
H 	 10.7918 	 21.2019 	 60.0917 	 
H 	 9.61114 	 22.6212 	 54.1072 	 
H 	 3.61421 	 19.6387 	 58.7599 	 
