34

S 	 -102.117 	 41.8935 	 124.239 	 
C 	 -100.863 	 40.7842 	 124.636 	 
C 	 -100.25 	 41.3201 	 125.766 	 
C 	 -100.779 	 42.6197 	 126.322 	 
C 	 -101.692 	 43.1522 	 125.435 	 
H 	 -100.425 	 43.2097 	 127.202 	 
C 	 -99.1575 	 40.6746 	 126.524 	 
H 	 -98.7959 	 41.467 	 127.145 	 
H 	 -98.3421 	 40.5513 	 125.814 	 
C 	 -99.441 	 39.4965 	 127.491 	 
H 	 -100.229 	 39.6388 	 128.198 	 
H 	 -99.7455 	 38.6726 	 126.886 	 
C 	 -98.2563 	 38.9678 	 128.326 	 
H 	 -97.9882 	 39.7734 	 129.049 	 
H 	 -98.5994 	 38.1739 	 129.036 	 
H 	 -97.3823 	 38.6613 	 127.725 	 
S 	 -104.223 	 44.4243 	 125.272 	 
C 	 -104.366 	 46.0867 	 125.481 	 
C 	 -103.112 	 46.5943 	 125.656 	 
C 	 -102.008 	 45.6973 	 125.681 	 
C 	 -102.447 	 44.3848 	 125.387 	 
H 	 -102.998 	 47.6373 	 125.789 	 
C 	 -100.564 	 46.0297 	 125.898 	 
H 	 -99.9063 	 45.1744 	 126.094 	 
H 	 -100.484 	 46.6842 	 126.689 	 
C 	 -100.029 	 46.7487 	 124.692 	 
H 	 -100.393 	 47.7103 	 124.385 	 
H 	 -100.274 	 46.1549 	 123.845 	 
C 	 -98.4625 	 46.9089 	 124.691 	 
H 	 -97.9804 	 45.914 	 124.398 	 
H 	 -97.9347 	 47.3355 	 125.56 	 
H 	 -98.3562 	 47.6226 	 123.909 	 
H 	 -100.672 	 39.7934 	 124.145 	 
H 	 -105.233 	 46.6594 	 125.683 	 
