34

S 	 -15.748 	 32.8647 	 38.0218 	 
C 	 -17.223 	 31.8729 	 37.6946 	 
C 	 -18.0736 	 32.5319 	 36.8241 	 
C 	 -17.536 	 33.7823 	 36.3537 	 
C 	 -16.2986 	 34.093 	 36.8911 	 
H 	 -18.0539 	 34.4659 	 35.6494 	 
C 	 -19.4448 	 32.0187 	 36.4894 	 
H 	 -19.5157 	 30.9797 	 36.7974 	 
H 	 -19.7089 	 32.0487 	 35.4249 	 
C 	 -20.5802 	 32.8364 	 37.1635 	 
H 	 -20.6146 	 33.866 	 36.7407 	 
H 	 -21.536 	 32.368 	 36.7737 	 
C 	 -20.6313 	 32.9384 	 38.6845 	 
H 	 -19.8201 	 33.4609 	 39.164 	 
H 	 -21.52 	 33.504 	 38.9723 	 
H 	 -20.7371 	 31.9842 	 39.0963 	 
S 	 -14.2405 	 35.2592 	 35.6829 	 
C 	 -13.9211 	 36.9711 	 35.8753 	 
C 	 -14.8729 	 37.5373 	 36.6561 	 
C 	 -15.9239 	 36.6814 	 37.0927 	 
C 	 -15.5963 	 35.3478 	 36.7723 	 
H 	 -14.6945 	 38.6327 	 37.0028 	 
C 	 -17.1204 	 37.1542 	 37.9344 	 
H 	 -16.7274 	 37.9561 	 38.5455 	 
H 	 -17.2965 	 36.3541 	 38.701 	 
C 	 -18.4441 	 37.4646 	 37.2527 	 
H 	 -19.1474 	 37.8082 	 38.0035 	 
H 	 -18.8199 	 36.5855 	 36.8477 	 
C 	 -18.5631 	 38.5172 	 36.1173 	 
H 	 -18.4373 	 38.0256 	 35.1548 	 
H 	 -17.8546 	 39.4085 	 36.21 	 
H 	 -19.5054 	 38.9759 	 36.1291 	 
H 	 -17.4476 	 30.8374 	 37.9395 	 
H 	 -12.9496 	 37.4078 	 35.647 	 
