34

S 	 -36.1881 	 51.346 	 102.8 	 
C 	 -35.1941 	 51.1061 	 104.254 	 
C 	 -35.9216 	 51.4393 	 105.406 	 
C 	 -37.2145 	 51.8948 	 105.045 	 
C 	 -37.6216 	 51.668 	 103.749 	 
H 	 -37.8427 	 52.4162 	 105.734 	 
C 	 -35.3678 	 51.4552 	 106.816 	 
H 	 -34.2984 	 51.165 	 106.838 	 
H 	 -35.9303 	 50.6864 	 107.33 	 
C 	 -35.3184 	 52.8313 	 107.524 	 
H 	 -36.3129 	 53.1993 	 107.729 	 
H 	 -34.8746 	 52.6485 	 108.583 	 
C 	 -34.6466 	 53.9178 	 106.705 	 
H 	 -35.0746 	 54.0322 	 105.669 	 
H 	 -34.6501 	 54.903 	 107.217 	 
H 	 -33.5562 	 53.7655 	 106.557 	 
S 	 -39.0715 	 52.7236 	 101.6 	 
C 	 -40.7731 	 52.7875 	 101.676 	 
C 	 -41.2654 	 52.2075 	 102.842 	 
C 	 -40.1977 	 51.6789 	 103.664 	 
C 	 -38.9647 	 51.907 	 103.179 	 
H 	 -42.285 	 52.1849 	 103.219 	 
C 	 -40.4677 	 51.256 	 105.099 	 
H 	 -40.1521 	 52.085 	 105.751 	 
H 	 -39.8038 	 50.4377 	 105.255 	 
C 	 -41.8878 	 50.7448 	 105.441 	 
H 	 -41.9573 	 50.0136 	 104.592 	 
H 	 -42.7123 	 51.399 	 105.338 	 
C 	 -42.0054 	 49.8779 	 106.672 	 
H 	 -41.7104 	 50.369 	 107.591 	 
H 	 -41.3462 	 48.9812 	 106.464 	 
H 	 -43.0238 	 49.5137 	 106.655 	 
H 	 -34.1446 	 50.9067 	 104.267 	 
H 	 -41.4166 	 52.9812 	 100.789 	 
