34

S 	 -42.0783 	 29.7694 	 75.2222 	 
C 	 -42.21 	 30.882 	 73.9033 	 
C 	 -42.4387 	 32.2315 	 74.257 	 
C 	 -42.694 	 32.3122 	 75.6744 	 
C 	 -42.6631 	 31.0832 	 76.2862 	 
H 	 -42.8325 	 33.2304 	 76.2347 	 
C 	 -42.5586 	 33.3984 	 73.345 	 
H 	 -43.2175 	 34.2507 	 73.6762 	 
H 	 -43.1737 	 32.9732 	 72.5156 	 
C 	 -41.3102 	 34.0573 	 72.8937 	 
H 	 -41.6256 	 34.9375 	 72.3139 	 
H 	 -40.7795 	 34.4719 	 73.7615 	 
C 	 -40.4127 	 33.1927 	 72.0576 	 
H 	 -40.7778 	 32.8774 	 71.106 	 
H 	 -39.4865 	 33.7158 	 71.8619 	 
H 	 -40.1268 	 32.3472 	 72.6979 	 
S 	 -42.2379 	 32.0855 	 78.7975 	 
C 	 -42.8601 	 31.2213 	 80.1627 	 
C 	 -43.2469 	 29.9512 	 79.8143 	 
C 	 -43.3701 	 29.7556 	 78.4113 	 
C 	 -42.8451 	 30.8485 	 77.7024 	 
H 	 -43.6175 	 29.3006 	 80.5802 	 
C 	 -44.105 	 28.5479 	 77.7292 	 
H 	 -44.2112 	 28.7808 	 76.6564 	 
H 	 -45.1165 	 28.6696 	 78.1141 	 
C 	 -43.3512 	 27.2093 	 77.7558 	 
H 	 -43.2115 	 26.7214 	 78.7832 	 
H 	 -42.3604 	 27.5034 	 77.3203 	 
C 	 -43.9766 	 26.3277 	 76.7764 	 
H 	 -44.2168 	 26.7471 	 75.7719 	 
H 	 -44.8918 	 25.9916 	 77.2541 	 
H 	 -43.3153 	 25.4505 	 76.6841 	 
H 	 -42.1735 	 30.6492 	 72.8683 	 
H 	 -42.7423 	 31.5396 	 81.1801 	 
