34

S 	 68.3124 	 20.1268 	 72.139 	 
C 	 67.2538 	 18.8843 	 72.7241 	 
C 	 66.1427 	 19.3527 	 73.336 	 
C 	 66.2305 	 20.7003 	 73.6175 	 
C 	 67.3117 	 21.3046 	 73.0058 	 
H 	 65.4958 	 21.3276 	 74.0351 	 
C 	 64.8866 	 18.5105 	 73.7468 	 
H 	 64.9744 	 17.5838 	 73.1776 	 
H 	 64.0611 	 19.1247 	 73.2275 	 
C 	 64.6733 	 18.2901 	 75.2493 	 
H 	 65.5353 	 17.7656 	 75.666 	 
H 	 64.7338 	 19.3126 	 75.7056 	 
C 	 63.3625 	 17.6525 	 75.6432 	 
H 	 62.4894 	 18.1635 	 75.2121 	 
H 	 63.1838 	 16.5997 	 75.2954 	 
H 	 63.2026 	 17.6285 	 76.7085 	 
S 	 67.2197 	 23.6834 	 74.3872 	 
C 	 67.988 	 25.1125 	 73.6994 	 
C 	 68.2231 	 24.9181 	 72.3734 	 
C 	 68.0386 	 23.5809 	 71.8792 	 
C 	 67.5531 	 22.7459 	 72.9248 	 
H 	 68.4853 	 25.7723 	 71.7558 	 
C 	 68.2817 	 23.1754 	 70.4489 	 
H 	 67.9461 	 23.9341 	 69.7782 	 
H 	 67.5791 	 22.3763 	 70.1472 	 
C 	 69.7492 	 22.8231 	 70.1437 	 
H 	 69.9411 	 21.9363 	 70.8185 	 
H 	 70.3686 	 23.6804 	 70.5224 	 
C 	 70.1664 	 22.3031 	 68.809 	 
H 	 71.2501 	 21.95 	 68.7367 	 
H 	 69.84 	 22.9452 	 68.0194 	 
H 	 69.5989 	 21.4048 	 68.6365 	 
H 	 67.3998 	 17.8408 	 72.5776 	 
H 	 68.0268 	 26.1617 	 74.088 	 
