34

S 	 55.9954 	 11.9784 	 53.8561 	 
C 	 56.2457 	 13.5692 	 53.0948 	 
C 	 55.3351 	 13.8373 	 52.0948 	 
C 	 54.2782 	 12.8855 	 52.0405 	 
C 	 54.4673 	 11.8194 	 52.94 	 
H 	 53.4887 	 12.9443 	 51.3196 	 
C 	 55.3373 	 15.1474 	 51.2961 	 
H 	 56.2084 	 15.7066 	 51.6138 	 
H 	 54.5197 	 15.7857 	 51.5798 	 
C 	 55.4957 	 14.9841 	 49.7368 	 
H 	 54.6714 	 14.3814 	 49.3697 	 
H 	 55.6483 	 15.9694 	 49.2971 	 
C 	 56.749 	 14.2044 	 49.4019 	 
H 	 57.6404 	 14.4496 	 49.9634 	 
H 	 56.5068 	 13.083 	 49.6389 	 
H 	 56.8911 	 14.3507 	 48.2927 	 
S 	 54.6511 	 9.01993 	 53.3364 	 
C 	 53.1541 	 8.09891 	 53.4538 	 
C 	 52.0861 	 8.94781 	 53.1467 	 
C 	 52.3959 	 10.3204 	 52.9808 	 
C 	 53.7207 	 10.5791 	 53.0866 	 
H 	 51.0927 	 8.51314 	 53.2196 	 
C 	 51.279 	 11.2791 	 52.8602 	 
H 	 51.7377 	 12.2811 	 52.8303 	 
H 	 50.6451 	 11.2224 	 53.7066 	 
C 	 50.4187 	 11.1069 	 51.6144 	 
H 	 49.9075 	 10.0757 	 51.6782 	 
H 	 51.0908 	 11.1528 	 50.803 	 
C 	 49.3273 	 12.1044 	 51.3769 	 
H 	 49.7258 	 13.139 	 51.1669 	 
H 	 48.5206 	 12.1929 	 52.0862 	 
H 	 48.824 	 11.8296 	 50.4467 	 
H 	 57.1545 	 14.1748 	 53.2262 	 
H 	 53.0331 	 7.00347 	 53.5545 	 
