34

S 	 -31.1324 	 27.5741 	 41.1933 	 
C 	 -32.6726 	 26.767 	 41.5771 	 
C 	 -33.4772 	 27.5275 	 42.3275 	 
C 	 -32.8072 	 28.709 	 42.8431 	 
C 	 -31.4813 	 28.806 	 42.474 	 
H 	 -33.3361 	 29.468 	 43.4566 	 
C 	 -34.9252 	 27.2532 	 42.5057 	 
H 	 -35.1981 	 26.3539 	 42.1497 	 
H 	 -35.5072 	 28.0236 	 41.9997 	 
C 	 -35.4593 	 27.217 	 43.9437 	 
H 	 -35.1434 	 28.1346 	 44.4889 	 
H 	 -36.5527 	 27.3928 	 43.9399 	 
C 	 -35.0359 	 25.9901 	 44.7673 	 
H 	 -35.5908 	 25.0539 	 44.4955 	 
H 	 -33.9787 	 25.8783 	 44.66 	 
H 	 -35.2264 	 26.0003 	 45.8297 	 
S 	 -29.5578 	 29.5758 	 44.1852 	 
C 	 -28.5769 	 30.9821 	 43.7972 	 
C 	 -29.1856 	 31.7229 	 42.7387 	 
C 	 -30.2746 	 31.1061 	 42.1248 	 
C 	 -30.5411 	 29.8707 	 42.8084 	 
H 	 -28.8423 	 32.6681 	 42.4554 	 
C 	 -30.9284 	 31.6443 	 40.8324 	 
H 	 -31.1287 	 30.7309 	 40.2448 	 
H 	 -30.1882 	 32.2475 	 40.4081 	 
C 	 -32.1542 	 32.4383 	 41.0936 	 
H 	 -33.0422 	 31.7803 	 41.3375 	 
H 	 -32.5907 	 32.8416 	 40.1652 	 
C 	 -32.1278 	 33.6212 	 42.0994 	 
H 	 -31.9884 	 33.1784 	 43.1065 	 
H 	 -33.0629 	 34.2201 	 42.1695 	 
H 	 -31.2786 	 34.2822 	 41.9505 	 
H 	 -32.8822 	 25.7981 	 41.095 	 
H 	 -27.7477 	 31.3744 	 44.256 	 
