34

S 	 -16.0068 	 53.4119 	 63.8187 	 
C 	 -15.508 	 51.9577 	 63.0183 	 
C 	 -14.1794 	 52.1088 	 62.5636 	 
C 	 -13.5174 	 53.2977 	 63.019 	 
C 	 -14.4047 	 54.0511 	 63.7077 	 
H 	 -12.6248 	 53.8039 	 62.7883 	 
C 	 -13.4727 	 51.0968 	 61.6886 	 
H 	 -13.8829 	 50.1402 	 61.8036 	 
H 	 -12.5657 	 50.8699 	 62.1948 	 
C 	 -13.2992 	 51.4267 	 60.1761 	 
H 	 -14.2762 	 51.34 	 59.6455 	 
H 	 -13.0204 	 52.4722 	 60.0477 	 
C 	 -12.3391 	 50.5116 	 59.483 	 
H 	 -12.3982 	 50.5843 	 58.4035 	 
H 	 -11.2596 	 50.6367 	 59.6661 	 
H 	 -12.7824 	 49.5058 	 59.6584 	 
S 	 -14.3363 	 56.8122 	 63.1683 	 
C 	 -13.5655 	 57.9057 	 64.2838 	 
C 	 -13.3383 	 57.2466 	 65.5026 	 
C 	 -13.5174 	 55.8807 	 65.3842 	 
C 	 -14.1049 	 55.3963 	 64.1985 	 
H 	 -12.7604 	 57.7573 	 66.2772 	 
C 	 -13.0328 	 54.991 	 66.4795 	 
H 	 -13.8246 	 54.2868 	 66.7748 	 
H 	 -12.7594 	 55.5716 	 67.3495 	 
C 	 -11.7964 	 54.235 	 66.017 	 
H 	 -11.005 	 54.9115 	 65.8727 	 
H 	 -11.9128 	 53.859 	 65.005 	 
C 	 -11.2328 	 53.0876 	 66.9151 	 
H 	 -12.0073 	 52.3501 	 67.0785 	 
H 	 -11.0086 	 53.5628 	 67.9692 	 
H 	 -10.2967 	 52.7481 	 66.4815 	 
H 	 -16.0688 	 51.1031 	 62.7124 	 
H 	 -13.4047 	 58.9171 	 64.0816 	 
