34

S 	 0.5349 	 -24.6959 	 55.7502 	 
C 	 -0.887523 	 -24.9762 	 56.6161 	 
C 	 -1.10757 	 -24.1135 	 57.7104 	 
C 	 0.0306887 	 -23.241 	 57.8691 	 
C 	 1.02245 	 -23.4067 	 56.9016 	 
H 	 0.0947392 	 -22.5416 	 58.7367 	 
C 	 -2.40501 	 -24.1497 	 58.486 	 
H 	 -2.13254 	 -24.7407 	 59.2935 	 
H 	 -3.19834 	 -24.567 	 57.8883 	 
C 	 -2.8756 	 -22.6901 	 58.8092 	 
H 	 -2.05453 	 -22.0542 	 59.1209 	 
H 	 -3.25311 	 -22.2237 	 57.8593 	 
C 	 -4.06437 	 -22.6446 	 59.8391 	 
H 	 -4.46669 	 -23.5862 	 60.2383 	 
H 	 -3.76913 	 -22.0916 	 60.7477 	 
H 	 -4.85361 	 -22.1021 	 59.4093 	 
S 	 3.7737 	 -23.3299 	 56.4705 	 
C 	 4.55111 	 -21.7953 	 56.3539 	 
C 	 3.65832 	 -20.7194 	 56.3993 	 
C 	 2.33615 	 -21.1796 	 56.621 	 
C 	 2.21647 	 -22.5646 	 56.6561 	 
H 	 3.93657 	 -19.6829 	 56.358 	 
C 	 1.18285 	 -20.2456 	 56.4879 	 
H 	 0.231975 	 -20.6893 	 56.7708 	 
H 	 0.961699 	 -20.0677 	 55.4561 	 
C 	 1.24759 	 -19.0096 	 57.4398 	 
H 	 0.4171 	 -18.3469 	 57.1902 	 
H 	 2.18685 	 -18.5806 	 57.2213 	 
C 	 1.15243 	 -19.2541 	 58.9447 	 
H 	 0.343339 	 -19.925 	 59.2348 	 
H 	 0.836322 	 -18.4374 	 59.553 	 
H 	 2.10967 	 -19.7243 	 59.3553 	 
H 	 -1.65953 	 -25.6793 	 56.5014 	 
H 	 5.63811 	 -21.6472 	 56.3 	 
