34

S 	 -38.4245 	 44.472 	 96.6674 	 
C 	 -39.2576 	 45.4758 	 97.8164 	 
C 	 -39.6445 	 44.6934 	 98.9091 	 
C 	 -38.9578 	 43.4316 	 98.9585 	 
C 	 -38.248 	 43.0897 	 97.8205 	 
H 	 -38.8902 	 42.772 	 99.8091 	 
C 	 -40.3542 	 45.2734 	 100.066 	 
H 	 -40.0277 	 46.3453 	 100.214 	 
H 	 -40.007 	 44.7237 	 100.974 	 
C 	 -41.8867 	 45.0072 	 100.133 	 
H 	 -42.0621 	 43.8992 	 100.142 	 
H 	 -42.2191 	 45.1976 	 101.16 	 
C 	 -42.8859 	 45.7519 	 99.1543 	 
H 	 -42.7777 	 46.8129 	 99.1308 	 
H 	 -42.8101 	 45.3812 	 98.1483 	 
H 	 -43.9643 	 45.6269 	 99.3112 	 
S 	 -35.807 	 42.2634 	 97.0209 	 
C 	 -35.4733 	 40.5571 	 96.789 	 
C 	 -36.4877 	 39.8299 	 97.3853 	 
C 	 -37.6097 	 40.5845 	 97.9229 	 
C 	 -37.4529 	 41.8858 	 97.6427 	 
H 	 -36.4234 	 38.7742 	 97.3324 	 
C 	 -38.8612 	 39.9426 	 98.5034 	 
H 	 -39.3178 	 40.55 	 99.295 	 
H 	 -38.4862 	 39.0299 	 99.0511 	 
C 	 -39.8366 	 39.2999 	 97.5681 	 
H 	 -39.3352 	 38.6541 	 96.8958 	 
H 	 -40.2003 	 40.1427 	 96.9538 	 
C 	 -41.0679 	 38.6915 	 98.2145 	 
H 	 -41.7975 	 38.5913 	 97.4155 	 
H 	 -41.5757 	 39.3622 	 98.9348 	 
H 	 -40.6063 	 37.8719 	 98.6546 	 
H 	 -39.5924 	 46.4985 	 97.5255 	 
H 	 -34.6391 	 40.0101 	 96.4811 	 
