34

S 	 54.287 	 22.8916 	 93.0225 	 
C 	 52.5489 	 22.8723 	 93.1884 	 
C 	 52.0262 	 21.6421 	 92.9286 	 
C 	 52.9875 	 20.7774 	 92.3301 	 
C 	 54.2013 	 21.3765 	 92.2123 	 
H 	 52.83 	 19.7936 	 91.9801 	 
C 	 50.5539 	 21.3106 	 93.1652 	 
H 	 50.0405 	 21.6998 	 92.2777 	 
H 	 50.1755 	 21.6908 	 94.1741 	 
C 	 50.1622 	 19.7877 	 92.9771 	 
H 	 49.0552 	 19.7764 	 92.7493 	 
H 	 50.5961 	 19.4286 	 92.0001 	 
C 	 50.63 	 18.8675 	 94.096 	 
H 	 50.1645 	 17.9067 	 93.9777 	 
H 	 51.6555 	 18.7422 	 93.9116 	 
H 	 50.4455 	 19.1861 	 95.1764 	 
S 	 56.3191 	 21.7362 	 90.3978 	 
C 	 57.1632 	 20.3643 	 89.6877 	 
C 	 56.8396 	 19.2452 	 90.4417 	 
C 	 55.7477 	 19.4153 	 91.3699 	 
C 	 55.3659 	 20.7499 	 91.5253 	 
H 	 57.2096 	 18.2401 	 90.1479 	 
C 	 55.3084 	 18.2103 	 92.1855 	 
H 	 55.9237 	 17.367 	 91.9561 	 
H 	 54.3206 	 17.8866 	 91.8101 	 
C 	 55.0863 	 18.4509 	 93.7339 	 
H 	 55.0541 	 17.5226 	 94.2995 	 
H 	 54.2304 	 18.9943 	 94.0503 	 
C 	 56.218 	 19.3079 	 94.3657 	 
H 	 57.2748 	 18.9363 	 94.3677 	 
H 	 55.9259 	 19.446 	 95.3611 	 
H 	 56.2464 	 20.2862 	 93.8591 	 
H 	 52.0989 	 23.6829 	 93.745 	 
H 	 57.8639 	 20.2876 	 88.7964 	 
