34

S 	 -64.419 	 46.8701 	 126.617 	 
C 	 -65.3327 	 45.6907 	 127.574 	 
C 	 -66.3606 	 46.2867 	 128.254 	 
C 	 -66.5091 	 47.6307 	 127.823 	 
C 	 -65.6475 	 48.0195 	 126.827 	 
H 	 -67.2684 	 48.3652 	 128.127 	 
C 	 -67.2512 	 45.6126 	 129.32 	 
H 	 -67.5346 	 46.3324 	 130.166 	 
H 	 -66.6841 	 44.8401 	 129.79 	 
C 	 -68.5579 	 45.0812 	 128.712 	 
H 	 -69.045 	 46.033 	 128.248 	 
H 	 -68.3842 	 44.3863 	 127.878 	 
C 	 -69.3731 	 44.1392 	 129.624 	 
H 	 -70.3122 	 43.8705 	 129.055 	 
H 	 -68.888 	 43.1881 	 129.689 	 
H 	 -69.4881 	 44.3984 	 130.668 	 
S 	 -65.4881 	 49.0703 	 124.303 	 
C 	 -65.2186 	 50.7534 	 124.182 	 
C 	 -65.456 	 51.3496 	 125.34 	 
C 	 -65.5154 	 50.4844 	 126.448 	 
C 	 -65.5761 	 49.171 	 126.029 	 
H 	 -65.5713 	 52.4363 	 125.317 	 
C 	 -65.4241 	 51.0168 	 127.844 	 
H 	 -66.2622 	 50.6581 	 128.494 	 
H 	 -65.6874 	 52.109 	 127.794 	 
C 	 -64.094 	 50.8635 	 128.484 	 
H 	 -63.3073 	 51.4428 	 128.002 	 
H 	 -63.7803 	 49.8012 	 128.413 	 
C 	 -64.0697 	 51.1211 	 129.943 	 
H 	 -64.495 	 52.0712 	 130.301 	 
H 	 -63.1168 	 51.1487 	 130.417 	 
H 	 -64.6861 	 50.2992 	 130.421 	 
H 	 -64.9945 	 44.6878 	 127.868 	 
H 	 -65.1961 	 51.26 	 123.217 	 
