34

S 	 44.0931 	 11.4695 	 87.506 	 
C 	 45.6699 	 11.9407 	 87.9104 	 
C 	 46.4667 	 10.8257 	 88.2845 	 
C 	 45.7702 	 9.59037 	 88.1688 	 
C 	 44.4679 	 9.7687 	 87.8292 	 
H 	 46.1258 	 8.63341 	 88.4735 	 
C 	 47.8909 	 10.8696 	 88.7594 	 
H 	 48.2051 	 9.82306 	 88.9145 	 
H 	 47.8233 	 11.3819 	 89.8134 	 
C 	 48.9177 	 11.3799 	 87.7278 	 
H 	 48.405 	 12.2509 	 87.3036 	 
H 	 49.8017 	 11.7668 	 88.2352 	 
C 	 49.38 	 10.5125 	 86.5899 	 
H 	 48.5891 	 10.616 	 85.7682 	 
H 	 50.3103 	 10.7923 	 86.0877 	 
H 	 49.3321 	 9.49202 	 86.8471 	 
S 	 42.0585 	 8.93798 	 88.8445 	 
C 	 41.3167 	 7.51942 	 88.1843 	 
C 	 42.1996 	 6.79218 	 87.3889 	 
C 	 43.4012 	 7.5499 	 87.0759 	 
C 	 43.4094 	 8.77746 	 87.7278 	 
H 	 41.9575 	 5.85834 	 86.9083 	 
C 	 44.4264 	 7.0643 	 86.1006 	 
H 	 44.64 	 6.03276 	 86.3082 	 
H 	 45.3448 	 7.67338 	 86.1802 	 
C 	 43.8843 	 7.23193 	 84.6721 	 
H 	 43.6861 	 8.32442 	 84.4667 	 
H 	 42.9093 	 6.7723 	 84.5705 	 
C 	 44.9217 	 6.73173 	 83.605 	 
H 	 44.4426 	 6.84355 	 82.6119 	 
H 	 45.0506 	 5.68145 	 83.7123 	 
H 	 45.836 	 7.28449 	 83.5962 	 
H 	 45.8941 	 12.9965 	 87.8874 	 
H 	 40.3953 	 7.23207 	 88.4979 	 
