34

S 	 -117.572 	 47.3605 	 135.219 	 
C 	 -117.663 	 47.5925 	 133.475 	 
C 	 -117.127 	 48.763 	 133.002 	 
C 	 -116.607 	 49.5361 	 134.081 	 
C 	 -116.909 	 49.0752 	 135.352 	 
H 	 -116.028 	 50.5028 	 134.102 	 
C 	 -117.096 	 49.2055 	 131.505 	 
H 	 -116.777 	 48.3192 	 131.006 	 
H 	 -116.48 	 50.0978 	 131.168 	 
C 	 -118.449 	 49.6508 	 131.114 	 
H 	 -118.469 	 49.7923 	 130.093 	 
H 	 -119.002 	 48.7863 	 131.25 	 
C 	 -119.043 	 50.7976 	 131.91 	 
H 	 -118.439 	 51.6249 	 131.685 	 
H 	 -120.052 	 50.9322 	 131.532 	 
H 	 -119.035 	 50.5747 	 132.933 	 
S 	 -117.719 	 50.0331 	 137.752 	 
C 	 -116.664 	 51.0101 	 138.762 	 
C 	 -115.44 	 51.138 	 138.183 	 
C 	 -115.327 	 50.4353 	 136.92 	 
C 	 -116.543 	 49.7573 	 136.612 	 
H 	 -114.71 	 51.7696 	 138.742 	 
C 	 -114.075 	 50.5371 	 136.147 	 
H 	 -114.105 	 49.8291 	 135.346 	 
H 	 -113.222 	 50.3926 	 136.799 	 
C 	 -113.847 	 51.8699 	 135.486 	 
H 	 -114.033 	 52.7036 	 136.151 	 
H 	 -114.621 	 51.8322 	 134.744 	 
C 	 -112.476 	 51.9833 	 134.683 	 
H 	 -112.513 	 52.9362 	 134.169 	 
H 	 -112.217 	 51.0845 	 134.068 	 
H 	 -111.74 	 52.0744 	 135.458 	 
H 	 -118.362 	 46.954 	 132.951 	 
H 	 -116.94 	 51.4155 	 139.72 	 
