34

S 	 -38.0198 	 21.4731 	 79.7425 	 
C 	 -37.226 	 22.386 	 80.9781 	 
C 	 -36.727 	 23.611 	 80.5331 	 
C 	 -36.9493 	 23.6601 	 79.1375 	 
C 	 -37.769 	 22.7281 	 78.5709 	 
H 	 -36.5324 	 24.3898 	 78.4622 	 
C 	 -36.0751 	 24.7634 	 81.3072 	 
H 	 -35.3277 	 25.241 	 80.6332 	 
H 	 -35.5174 	 24.2353 	 82.1156 	 
C 	 -36.9512 	 25.8138 	 81.7877 	 
H 	 -37.4269 	 26.3374 	 80.9259 	 
H 	 -37.7568 	 25.4947 	 82.4041 	 
C 	 -36.1723 	 26.9342 	 82.4489 	 
H 	 -36.844 	 27.7153 	 82.6811 	 
H 	 -35.7337 	 26.549 	 83.411 	 
H 	 -35.4448 	 27.3139 	 81.7869 	 
S 	 -37.6514 	 21.183 	 76.167 	 
C 	 -38.6877 	 21.6902 	 74.8834 	 
C 	 -39.0192 	 23.0822 	 74.9984 	 
C 	 -38.7432 	 23.5834 	 76.3047 	 
C 	 -38.1531 	 22.6326 	 77.1364 	 
H 	 -39.5962 	 23.5991 	 74.1587 	 
C 	 -39.1734 	 24.9276 	 76.7979 	 
H 	 -39.5447 	 25.4383 	 75.8456 	 
H 	 -38.2553 	 25.506 	 77.1999 	 
C 	 -40.2852 	 24.8882 	 77.8092 	 
H 	 -39.9057 	 24.7192 	 78.7812 	 
H 	 -41.0205 	 24.0419 	 77.6753 	 
C 	 -41.1303 	 26.1027 	 77.7899 	 
H 	 -41.2972 	 26.3873 	 76.7864 	 
H 	 -40.565 	 26.9159 	 78.2917 	 
H 	 -42.0429 	 25.9918 	 78.417 	 
H 	 -37.1762 	 22.0173 	 81.9513 	 
H 	 -38.9069 	 21.156 	 73.9324 	 
