34

S 	 -6.13184 	 -10.1029 	 81.6831 	 
C 	 -5.58231 	 -8.53231 	 81.1151 	 
C 	 -5.96051 	 -7.53429 	 81.9455 	 
C 	 -6.51429 	 -7.97289 	 83.1361 	 
C 	 -6.49921 	 -9.35586 	 83.2061 	 
H 	 -6.78123 	 -7.40526 	 84.019 	 
C 	 -5.88862 	 -6.10017 	 81.6379 	 
H 	 -5.18516 	 -6.07444 	 80.8248 	 
H 	 -5.4144 	 -5.57489 	 82.4797 	 
C 	 -7.17841 	 -5.38138 	 81.2779 	 
H 	 -7.63144 	 -6.05137 	 80.5183 	 
H 	 -7.81294 	 -5.35262 	 82.1628 	 
C 	 -6.89771 	 -3.95069 	 80.8829 	 
H 	 -6.08479 	 -3.85787 	 80.1137 	 
H 	 -7.747 	 -3.39514 	 80.645 	 
H 	 -6.46597 	 -3.58189 	 81.7893 	 
S 	 -5.82101 	 -10.9269 	 85.3559 	 
C 	 -7.0472 	 -11.0477 	 86.6297 	 
C 	 -8.26827 	 -10.4636 	 86.309 	 
C 	 -8.17005 	 -9.87497 	 85.038 	 
C 	 -6.95058 	 -10.0557 	 84.4015 	 
H 	 -9.15042 	 -10.4365 	 86.9162 	 
C 	 -9.38575 	 -9.14172 	 84.4294 	 
H 	 -9.59218 	 -9.59691 	 83.4154 	 
H 	 -8.98265 	 -8.13513 	 84.3583 	 
C 	 -10.7411 	 -9.06806 	 85.1438 	 
H 	 -10.6113 	 -8.48829 	 86.0679 	 
H 	 -11.1545 	 -10.0302 	 85.4467 	 
C 	 -11.8167 	 -8.25411 	 84.3506 	 
H 	 -11.5299 	 -7.19733 	 84.2456 	 
H 	 -12.7758 	 -8.35795 	 84.8683 	 
H 	 -11.875 	 -8.73799 	 83.3367 	 
H 	 -5.18599 	 -8.30828 	 80.1868 	 
H 	 -6.94913 	 -11.6788 	 87.5812 	 
