34

S 	 -3.25679 	 72.2784 	 55.717 	 
C 	 -3.15204 	 70.5897 	 56.1196 	 
C 	 -2.77206 	 69.9012 	 54.9927 	 
C 	 -2.51551 	 70.7733 	 53.883 	 
C 	 -2.65379 	 72.1009 	 54.1181 	 
H 	 -2.24535 	 70.3819 	 52.9594 	 
C 	 -2.66403 	 68.3883 	 54.9721 	 
H 	 -2.04541 	 68.1055 	 55.8183 	 
H 	 -2.16693 	 68.0134 	 54.1048 	 
C 	 -3.98248 	 67.7332 	 55.1715 	 
H 	 -4.2969 	 67.9555 	 56.1964 	 
H 	 -4.73155 	 68.2086 	 54.4981 	 
C 	 -3.87952 	 66.2367 	 55.0275 	 
H 	 -4.75041 	 65.698 	 55.2809 	 
H 	 -3.53159 	 65.9229 	 54.0338 	 
H 	 -3.09639 	 65.9038 	 55.6083 	 
S 	 -4.31703 	 73.7707 	 52.6607 	 
C 	 -3.63562 	 74.6425 	 51.3661 	 
C 	 -2.2607 	 74.5116 	 51.2518 	 
C 	 -1.71318 	 73.5797 	 52.2201 	 
C 	 -2.70861 	 73.1741 	 53.1439 	 
H 	 -1.64258 	 75.0405 	 50.4998 	 
C 	 -0.264108 	 73.0647 	 52.2821 	 
H 	 -0.0176906 	 72.7191 	 51.2388 	 
H 	 -0.179097 	 72.2665 	 52.9583 	 
C 	 0.800735 	 74.1314 	 52.4531 	 
H 	 0.755879 	 74.6851 	 53.3611 	 
H 	 0.804149 	 74.8159 	 51.6582 	 
C 	 2.16588 	 73.4979 	 52.4178 	 
H 	 2.85802 	 74.1869 	 52.6856 	 
H 	 2.31288 	 73.1609 	 51.3753 	 
H 	 2.24408 	 72.5728 	 53.1179 	 
H 	 -3.40495 	 70.2178 	 57.104 	 
H 	 -4.24102 	 75.2223 	 50.7452 	 
