34

S 	 -18.3691 	 -0.480109 	 77.5457 	 
C 	 -16.7157 	 0.106597 	 77.8955 	 
C 	 -16.2247 	 -0.174396 	 79.1698 	 
C 	 -17.1677 	 -0.976752 	 79.9138 	 
C 	 -18.3024 	 -1.23487 	 79.1562 	 
H 	 -16.997 	 -1.29829 	 80.9121 	 
C 	 -14.817 	 0.0454288 	 79.6356 	 
H 	 -14.3594 	 0.67578 	 78.8736 	 
H 	 -14.3352 	 -0.944856 	 79.6077 	 
C 	 -14.6598 	 0.691444 	 80.9812 	 
H 	 -14.9974 	 1.71867 	 80.857 	 
H 	 -15.359 	 0.13481 	 81.5294 	 
C 	 -13.2609 	 0.710796 	 81.623 	 
H 	 -12.9725 	 -0.311001 	 81.9277 	 
H 	 -12.5094 	 1.03704 	 80.9446 	 
H 	 -13.2065 	 1.35829 	 82.5166 	 
S 	 -20.9673 	 -1.25351 	 79.189 	 
C 	 -21.9032 	 -2.51308 	 80.0302 	 
C 	 -21.0652 	 -3.40443 	 80.5956 	 
C 	 -19.6595 	 -3.13049 	 80.3654 	 
C 	 -19.4547 	 -1.90614 	 79.6933 	 
H 	 -21.5758 	 -4.19757 	 81.0002 	 
C 	 -18.5842 	 -3.98027 	 80.9572 	 
H 	 -18.373 	 -3.59549 	 81.9335 	 
H 	 -17.7177 	 -3.82621 	 80.307 	 
C 	 -18.8151 	 -5.511 	 80.8424 	 
H 	 -19.2706 	 -5.76375 	 79.9034 	 
H 	 -19.4581 	 -5.81027 	 81.6549 	 
C 	 -17.6166 	 -6.38831 	 81.1654 	 
H 	 -17.9163 	 -7.41215 	 81.0295 	 
H 	 -17.3342 	 -6.19636 	 82.194 	 
H 	 -16.7231 	 -6.15948 	 80.5455 	 
H 	 -16.1253 	 0.699654 	 77.2069 	 
H 	 -23.0062 	 -2.48776 	 80.2025 	 
