34

S 	 -29.2045 	 29.8098 	 46.0839 	 
C 	 -28.0244 	 29.3129 	 47.339 	 
C 	 -28.42 	 29.5287 	 48.6668 	 
C 	 -29.6623 	 30.2913 	 48.6797 	 
C 	 -30.2362 	 30.4163 	 47.3882 	 
H 	 -30.1568 	 30.6822 	 49.5606 	 
C 	 -27.6618 	 29.1369 	 49.8907 	 
H 	 -26.6036 	 29.3212 	 49.6319 	 
H 	 -27.7735 	 28.0536 	 49.9983 	 
C 	 -27.9635 	 29.7576 	 51.2623 	 
H 	 -28.9479 	 29.5058 	 51.7313 	 
H 	 -27.2213 	 29.2564 	 51.955 	 
C 	 -27.7298 	 31.2783 	 51.2223 	 
H 	 -26.7763 	 31.4497 	 50.7581 	 
H 	 -28.4134 	 31.8203 	 50.5503 	 
H 	 -27.7753 	 31.6675 	 52.2497 	 
S 	 -31.9005 	 31.9222 	 45.6586 	 
C 	 -33.4516 	 32.3969 	 46.2588 	 
C 	 -33.8624 	 31.7544 	 47.3972 	 
C 	 -32.7882 	 30.989 	 47.8858 	 
C 	 -31.5969 	 30.9768 	 47.1418 	 
H 	 -34.8988 	 31.7269 	 47.7093 	 
C 	 -33.1039 	 30.1309 	 49.0983 	 
H 	 -33.7141 	 30.8642 	 49.6965 	 
H 	 -32.1652 	 29.8977 	 49.5296 	 
C 	 -33.8409 	 28.8477 	 48.8118 	 
H 	 -33.5173 	 28.1887 	 48.0036 	 
H 	 -34.7219 	 29.1432 	 48.3922 	 
C 	 -33.922 	 27.8887 	 49.9824 	 
H 	 -32.9639 	 27.5497 	 50.2848 	 
H 	 -34.6277 	 27.0827 	 49.8364 	 
H 	 -34.4456 	 28.4596 	 50.7579 	 
H 	 -27.1032 	 28.648 	 47.3177 	 
H 	 -34.1561 	 32.991 	 45.6838 	 
