34

S 	 10.5756 	 -12.3956 	 88.6402 	 
C 	 11.5651 	 -12.9912 	 87.3671 	 
C 	 12.3941 	 -13.9661 	 87.9172 	 
C 	 12.3089 	 -14.1099 	 89.3188 	 
C 	 11.3758 	 -13.3168 	 89.8874 	 
H 	 12.9045 	 -14.6883 	 90.0339 	 
C 	 13.4392 	 -14.8007 	 87.1434 	 
H 	 13.1245 	 -15.0547 	 86.1205 	 
H 	 13.3582 	 -15.7685 	 87.5044 	 
C 	 14.7926 	 -14.0913 	 87.19 	 
H 	 15.3755 	 -14.7483 	 86.5414 	 
H 	 14.6066 	 -13.117 	 86.813 	 
C 	 15.4887 	 -13.9667 	 88.6539 	 
H 	 15.7762 	 -14.985 	 88.9375 	 
H 	 16.499 	 -13.5086 	 88.5177 	 
H 	 14.9374 	 -13.4106 	 89.4586 	 
S 	 9.29126 	 -13.2925 	 91.6053 	 
C 	 9.53789 	 -13.1121 	 93.3523 	 
C 	 10.8693 	 -12.904 	 93.656 	 
C 	 11.69 	 -13.062 	 92.4744 	 
C 	 10.9782 	 -13.1427 	 91.2825 	 
H 	 11.1153 	 -12.6861 	 94.7487 	 
C 	 13.1848 	 -12.9663 	 92.5508 	 
H 	 13.7668 	 -13.2598 	 91.6623 	 
H 	 13.4888 	 -13.7361 	 93.2395 	 
C 	 13.6307 	 -11.4709 	 92.9814 	 
H 	 13.2142 	 -11.1395 	 93.9031 	 
H 	 13.3185 	 -10.777 	 92.2354 	 
C 	 15.1092 	 -11.3739 	 93.2519 	 
H 	 15.4198 	 -11.7918 	 94.2416 	 
H 	 15.428 	 -10.365 	 93.1812 	 
H 	 15.6787 	 -11.8618 	 92.4281 	 
H 	 11.6426 	 -12.8052 	 86.2812 	 
H 	 8.7532 	 -12.9511 	 94.1089 	 
