34

S 	 -93.9053 	 60.2996 	 128.799 	 
C 	 -92.5695 	 61.0444 	 129.724 	 
C 	 -93.0388 	 61.5365 	 130.913 	 
C 	 -94.4824 	 61.6477 	 130.952 	 
C 	 -95.1183 	 60.9759 	 129.907 	 
H 	 -95.0228 	 62.0579 	 131.81 	 
C 	 -92.1895 	 62.0993 	 132.047 	 
H 	 -92.8462 	 62.166 	 132.877 	 
H 	 -91.9963 	 63.202 	 131.786 	 
C 	 -91.0322 	 61.2672 	 132.436 	 
H 	 -91.323 	 60.2553 	 132.714 	 
H 	 -90.4225 	 61.0464 	 131.561 	 
C 	 -90.1611 	 61.7753 	 133.576 	 
H 	 -89.8406 	 62.7826 	 133.452 	 
H 	 -90.8442 	 61.6516 	 134.432 	 
H 	 -89.2959 	 61.0991 	 133.713 	 
S 	 -97.0079 	 58.9 	 129.529 	 
C 	 -98.6672 	 59.3731 	 129.36 	 
C 	 -98.8432 	 60.745 	 129.423 	 
C 	 -97.6881 	 61.4643 	 129.714 	 
C 	 -96.5496 	 60.6122 	 129.749 	 
H 	 -99.8627 	 61.066 	 129.355 	 
C 	 -97.764 	 62.9185 	 129.696 	 
H 	 -98.2158 	 63.2958 	 128.782 	 
H 	 -96.7173 	 63.2213 	 129.713 	 
C 	 -98.5425 	 63.5818 	 130.864 	 
H 	 -98.3492 	 63.0664 	 131.785 	 
H 	 -99.5971 	 63.3904 	 130.805 	 
C 	 -98.4468 	 65.12 	 131.057 	 
H 	 -97.9136 	 65.5621 	 130.236 	 
H 	 -97.808 	 65.3358 	 131.968 	 
H 	 -99.4006 	 65.6005 	 130.944 	 
H 	 -91.5676 	 61.0578 	 129.395 	 
H 	 -99.4922 	 58.6488 	 129.138 	 
