34

S 	 31.7098 	 13.0562 	 70.7335 	 
C 	 30.3847 	 14.1729 	 70.3357 	 
C 	 29.6665 	 13.7776 	 69.2297 	 
C 	 30.1736 	 12.5324 	 68.7248 	 
C 	 31.2493 	 12.0178 	 69.4271 	 
H 	 29.8649 	 11.886 	 67.9311 	 
C 	 28.3318 	 14.4695 	 68.8127 	 
H 	 28.5327 	 14.8033 	 67.7775 	 
H 	 28.2429 	 15.3657 	 69.4115 	 
C 	 27.0165 	 13.6141 	 69.0344 	 
H 	 27.0859 	 12.5565 	 68.7428 	 
H 	 26.9284 	 13.6293 	 70.1531 	 
C 	 25.8728 	 14.2442 	 68.2745 	 
H 	 25.0546 	 13.5632 	 68.3756 	 
H 	 25.6192 	 15.2368 	 68.6035 	 
H 	 26.1355 	 14.2963 	 67.1939 	 
S 	 33.7073 	 10.8708 	 68.9394 	 
C 	 33.8582 	 9.15942 	 68.7994 	 
C 	 32.632 	 8.59444 	 68.9992 	 
C 	 31.5489 	 9.47478 	 69.2203 	 
C 	 31.9823 	 10.7926 	 69.2198 	 
H 	 32.4837 	 7.55052 	 68.79 	 
C 	 30.1092 	 9.01663 	 69.5627 	 
H 	 29.7153 	 8.48308 	 68.7311 	 
H 	 29.4854 	 9.9013 	 69.7611 	 
C 	 30.1055 	 8.10069 	 70.8172 	 
H 	 30.6017 	 8.65629 	 71.6189 	 
H 	 30.5947 	 7.15391 	 70.6082 	 
C 	 28.7085 	 7.80616 	 71.3617 	 
H 	 28.1815 	 8.80136 	 71.5741 	 
H 	 28.7327 	 7.09563 	 72.1876 	 
H 	 28.1026 	 7.31181 	 70.6118 	 
H 	 30.0891 	 15.0274 	 70.8555 	 
H 	 34.7878 	 8.62372 	 68.6142 	 
