34

S 	 -1.7875 	 25.0548 	 34.8785 	 
C 	 -1.79797 	 25.8459 	 33.2984 	 
C 	 -0.854477 	 25.299 	 32.4353 	 
C 	 0.0109238 	 24.3692 	 33.0914 	 
C 	 -0.391949 	 24.0217 	 34.3849 	 
H 	 0.95441 	 23.8673 	 32.7252 	 
C 	 -0.631681 	 25.7192 	 30.9635 	 
H 	 0.434147 	 25.7141 	 30.6025 	 
H 	 -0.734664 	 26.7912 	 31.0411 	 
C 	 -1.58412 	 25.0973 	 30.0033 	 
H 	 -1.46682 	 24.0396 	 30.1753 	 
H 	 -2.62642 	 25.2945 	 30.312 	 
C 	 -1.41886 	 25.4067 	 28.4954 	 
H 	 -1.48127 	 26.4769 	 28.3078 	 
H 	 -0.398547 	 25.1539 	 28.2206 	 
H 	 -2.06271 	 24.8058 	 27.8357 	 
S 	 1.04518 	 23.3915 	 36.621 	 
C 	 1.59875 	 21.8197 	 36.8196 	 
C 	 1.0644 	 20.9814 	 35.8317 	 
C 	 0.275476 	 21.5943 	 34.7863 	 
C 	 0.160509 	 22.9231 	 35.1786 	 
H 	 1.2388 	 19.9127 	 35.8842 	 
C 	 -0.227168 	 20.8653 	 33.5358 	 
H 	 0.582648 	 20.9068 	 32.7822 	 
H 	 -1.19632 	 21.3956 	 33.2122 	 
C 	 -0.721801 	 19.4171 	 33.6013 	 
H 	 0.116497 	 18.7274 	 33.8315 	 
H 	 -1.13131 	 19.0742 	 32.6504 	 
C 	 -1.82685 	 19.0869 	 34.6968 	 
H 	 -1.85735 	 19.9051 	 35.3667 	 
H 	 -1.60543 	 18.1979 	 35.3209 	 
H 	 -2.85878 	 18.9162 	 34.286 	 
H 	 -2.56073 	 26.6247 	 32.9497 	 
H 	 2.2448 	 21.548 	 37.5735 	 
