34

S 	 -34.7158 	 67.9895 	 170.282 	 
C 	 -33.5697 	 68.8846 	 171.217 	 
C 	 -34.1776 	 69.7914 	 172.046 	 
C 	 -35.5641 	 69.8821 	 171.792 	 
C 	 -35.9807 	 68.9383 	 170.895 	 
H 	 -36.3278 	 70.6143 	 172.104 	 
C 	 -33.4499 	 70.7555 	 172.975 	 
H 	 -33.0472 	 71.5276 	 172.363 	 
H 	 -32.697 	 70.3263 	 173.585 	 
C 	 -34.3589 	 71.452 	 173.941 	 
H 	 -34.9453 	 72.2521 	 173.417 	 
H 	 -35.069 	 70.7314 	 174.289 	 
C 	 -33.638 	 72.0271 	 175.162 	 
H 	 -33.1568 	 71.196 	 175.765 	 
H 	 -32.7515 	 72.6956 	 174.979 	 
H 	 -34.4451 	 72.4469 	 175.895 	 
S 	 -38.161 	 69.213 	 169.105 	 
C 	 -39.6142 	 68.3338 	 169.532 	 
C 	 -39.5619 	 67.6833 	 170.797 	 
C 	 -38.2955 	 67.844 	 171.437 	 
C 	 -37.3657 	 68.5043 	 170.584 	 
H 	 -40.4825 	 67.209 	 171.293 	 
C 	 -37.9563 	 67.3292 	 172.781 	 
H 	 -36.9429 	 67.4136 	 172.891 	 
H 	 -38.2192 	 66.2681 	 172.627 	 
C 	 -38.7662 	 67.9513 	 173.955 	 
H 	 -38.496 	 67.3771 	 174.888 	 
H 	 -39.8652 	 67.7775 	 173.846 	 
C 	 -38.4784 	 69.477 	 174.228 	 
H 	 -38.9702 	 70.0355 	 173.417 	 
H 	 -37.4042 	 69.5677 	 174.371 	 
H 	 -38.9868 	 69.853 	 175.025 	 
H 	 -32.5254 	 68.6119 	 171.182 	 
H 	 -40.5916 	 68.4952 	 169.094 	 
