34

S 	 -62.0833 	 49.8028 	 125.697 	 
C 	 -62.3583 	 48.015 	 125.735 	 
C 	 -61.6155 	 47.3752 	 124.669 	 
C 	 -61.0094 	 48.373 	 123.847 	 
C 	 -61.0191 	 49.6565 	 124.368 	 
H 	 -60.4947 	 48.1186 	 122.951 	 
C 	 -61.5222 	 45.9135 	 124.305 	 
H 	 -60.9362 	 45.4228 	 125.074 	 
H 	 -60.7663 	 45.728 	 123.58 	 
C 	 -62.9127 	 45.3817 	 124.08 	 
H 	 -63.4958 	 45.4818 	 124.981 	 
H 	 -63.3748 	 46.0119 	 123.327 	 
C 	 -62.9077 	 43.8851 	 123.667 	 
H 	 -62.3294 	 43.7553 	 122.703 	 
H 	 -62.3673 	 43.2048 	 124.378 	 
H 	 -63.9695 	 43.6596 	 123.71 	 
S 	 -61.0014 	 51.2895 	 122.222 	 
C 	 -59.6605 	 52.416 	 121.907 	 
C 	 -58.7065 	 52.2651 	 122.911 	 
C 	 -59.0365 	 51.1791 	 123.748 	 
C 	 -60.3698 	 50.7921 	 123.717 	 
H 	 -57.7882 	 52.883 	 122.851 	 
C 	 -57.9659 	 50.6153 	 124.726 	 
H 	 -58.2806 	 49.5332 	 125.02 	 
H 	 -58.1825 	 51.2449 	 125.641 	 
C 	 -56.514 	 50.688 	 124.279 	 
H 	 -55.8728 	 50.452 	 125.164 	 
H 	 -56.2244 	 51.713 	 124.001 	 
C 	 -56.1347 	 49.8974 	 123.065 	 
H 	 -55.8497 	 48.9188 	 123.352 	 
H 	 -55.3006 	 50.4176 	 122.582 	 
H 	 -57.01 	 49.7345 	 122.358 	 
H 	 -62.8247 	 47.5267 	 126.555 	 
H 	 -59.6182 	 53.2058 	 121.167 	 
