34

S 	 -73.9732 	 43.6142 	 125.121 	 
C 	 -73.546 	 44.4236 	 126.626 	 
C 	 -72.5084 	 43.7713 	 127.244 	 
C 	 -71.9831 	 42.7511 	 126.46 	 
C 	 -72.7573 	 42.3781 	 125.392 	 
H 	 -71.0822 	 42.1261 	 126.611 	 
C 	 -71.908 	 44.0732 	 128.639 	 
H 	 -71.1103 	 44.897 	 128.559 	 
H 	 -71.2631 	 43.2329 	 128.937 	 
C 	 -72.8788 	 44.3868 	 129.837 	 
H 	 -73.6582 	 43.721 	 130.021 	 
H 	 -72.3431 	 44.2835 	 130.782 	 
C 	 -73.3941 	 45.8871 	 129.945 	 
H 	 -72.4939 	 46.5167 	 130.153 	 
H 	 -73.8711 	 46.1948 	 129.024 	 
H 	 -73.9855 	 45.9338 	 130.867 	 
S 	 -72.0909 	 42.0987 	 122.771 	 
C 	 -72.1194 	 40.4377 	 122.115 	 
C 	 -71.9447 	 39.4723 	 123.126 	 
C 	 -72.046 	 40.092 	 124.374 	 
C 	 -72.4894 	 41.3977 	 124.351 	 
H 	 -71.6385 	 38.4527 	 122.874 	 
C 	 -71.6085 	 39.3639 	 125.658 	 
H 	 -72.1382 	 38.4404 	 125.715 	 
H 	 -72.0496 	 39.8404 	 126.558 	 
C 	 -70.1176 	 39.0098 	 125.821 	 
H 	 -69.8322 	 38.4097 	 124.973 	 
H 	 -70.0219 	 38.481 	 126.667 	 
C 	 -69.0923 	 40.126 	 125.99 	 
H 	 -69.0982 	 40.5716 	 126.942 	 
H 	 -69.1925 	 40.9044 	 125.237 	 
H 	 -68.1083 	 39.6506 	 125.791 	 
H 	 -74.0903 	 45.3244 	 126.967 	 
H 	 -72.0788 	 40.1989 	 121.041 	 
