34

S 	 10.0968 	 23.0903 	 39.7537 	 
C 	 8.45799 	 23.7894 	 40.0074 	 
C 	 8.52979 	 24.8716 	 40.835 	 
C 	 9.82576 	 24.9517 	 41.5002 	 
C 	 10.7522 	 24.0173 	 41.0592 	 
H 	 10.1083 	 25.5906 	 42.3419 	 
C 	 7.37089 	 25.808 	 41.0474 	 
H 	 6.48972 	 25.3803 	 40.6507 	 
H 	 7.49866 	 26.7437 	 40.5238 	 
C 	 7.24045 	 26.2111 	 42.4822 	 
H 	 7.67535 	 25.4311 	 43.1486 	 
H 	 7.9011 	 27.073 	 42.6584 	 
C 	 5.76112 	 26.5115 	 42.8552 	 
H 	 5.25899 	 25.5642 	 42.9075 	 
H 	 5.83217 	 27.0481 	 43.7743 	 
H 	 5.21147 	 27.1737 	 42.1252 	 
S 	 11.8064 	 23.5922 	 43.4295 	 
C 	 13.4663 	 23.1153 	 43.591 	 
C 	 14.1595 	 23.0748 	 42.3902 	 
C 	 13.2587 	 23.2938 	 41.3056 	 
C 	 11.9917 	 23.7087 	 41.6997 	 
H 	 15.2131 	 22.7457 	 42.3336 	 
C 	 13.7183 	 23.1419 	 39.8694 	 
H 	 12.9119 	 23.6765 	 39.1959 	 
H 	 13.678 	 22.0929 	 39.6627 	 
C 	 15.1264 	 23.6099 	 39.4626 	 
H 	 15.9319 	 23.3686 	 40.1147 	 
H 	 15.0836 	 24.6782 	 39.3736 	 
C 	 15.5434 	 23.1016 	 38.0165 	 
H 	 16.3634 	 23.7735 	 37.7195 	 
H 	 14.7124 	 23.3868 	 37.3617 	 
H 	 15.6939 	 22.0386 	 37.8329 	 
H 	 7.64497 	 23.5169 	 39.4871 	 
H 	 13.9451 	 22.8318 	 44.4952 	 
