34

S 	 -37.0631 	 70.3596 	 108.665 	 
C 	 -37.0282 	 69.7592 	 107.079 	 
C 	 -35.7067 	 69.4873 	 106.633 	 
C 	 -34.7642 	 69.7589 	 107.654 	 
C 	 -35.3041 	 70.2226 	 108.86 	 
H 	 -33.7191 	 69.4313 	 107.621 	 
C 	 -35.2913 	 68.9296 	 105.326 	 
H 	 -34.2962 	 69.1089 	 105.283 	 
H 	 -35.778 	 69.4332 	 104.472 	 
C 	 -35.338 	 67.4139 	 105.192 	 
H 	 -35.2462 	 66.8649 	 106.194 	 
H 	 -36.3069 	 67.034 	 104.836 	 
C 	 -34.4333 	 66.9099 	 104.036 	 
H 	 -33.4206 	 66.8241 	 104.356 	 
H 	 -34.7326 	 65.8677 	 103.864 	 
H 	 -34.6053 	 67.475 	 103.196 	 
S 	 -35.5931 	 70.6862 	 111.564 	 
C 	 -34.1873 	 71.0883 	 112.453 	 
C 	 -33.1437 	 71.4721 	 111.715 	 
C 	 -33.4158 	 71.2164 	 110.338 	 
C 	 -34.6299 	 70.6691 	 110.071 	 
H 	 -32.123 	 71.7104 	 112.009 	 
C 	 -32.2722 	 71.4877 	 109.415 	 
H 	 -32.2623 	 70.7258 	 108.639 	 
H 	 -31.286 	 71.4449 	 109.836 	 
C 	 -32.3955 	 72.8325 	 108.68 	 
H 	 -31.4799 	 73.0164 	 108.023 	 
H 	 -32.3433 	 73.5928 	 109.386 	 
C 	 -33.7147 	 72.9534 	 107.911 	 
H 	 -34.7012 	 73.0032 	 108.486 	 
H 	 -33.8132 	 72.0961 	 107.246 	 
H 	 -33.6531 	 73.9196 	 107.32 	 
H 	 -37.7654 	 69.6215 	 106.33 	 
H 	 -34.0299 	 70.9274 	 113.58 	 
