34

S 	 7.66952 	 24.653 	 66.2559 	 
C 	 7.00656 	 24.3158 	 64.6362 	 
C 	 6.72788 	 25.5012 	 63.9275 	 
C 	 7.07263 	 26.6425 	 64.6719 	 
C 	 7.49835 	 26.4252 	 65.9553 	 
H 	 7.01954 	 27.6686 	 64.245 	 
C 	 6.27124 	 25.5617 	 62.4704 	 
H 	 5.42631 	 26.1818 	 62.4203 	 
H 	 5.93998 	 24.5899 	 62.1116 	 
C 	 7.18707 	 26.16 	 61.4793 	 
H 	 6.79451 	 26.229 	 60.4139 	 
H 	 7.31429 	 27.2272 	 61.7751 	 
C 	 8.50325 	 25.3637 	 61.3359 	 
H 	 8.34365 	 24.3806 	 60.9014 	 
H 	 9.2159 	 25.8842 	 60.7006 	 
H 	 9.05186 	 25.2018 	 62.2339 	 
S 	 9.02173 	 26.8647 	 68.2774 	 
C 	 9.00899 	 28.3431 	 69.0957 	 
C 	 8.18617 	 29.2495 	 68.4771 	 
C 	 7.52324 	 28.6782 	 67.2995 	 
C 	 7.8699 	 27.3777 	 67.0043 	 
H 	 8.09635 	 30.2424 	 68.9013 	 
C 	 6.60803 	 29.6091 	 66.4857 	 
H 	 7.17256 	 29.8052 	 65.5655 	 
H 	 6.57675 	 30.5707 	 67.024 	 
C 	 5.17812 	 29.1403 	 66.3108 	 
H 	 4.51285 	 29.1415 	 67.1913 	 
H 	 5.22047 	 28.1248 	 65.9235 	 
C 	 4.34229 	 29.9008 	 65.3289 	 
H 	 3.35336 	 29.4042 	 65.4022 	 
H 	 4.74102 	 29.839 	 64.2988 	 
H 	 4.24656 	 30.9506 	 65.6848 	 
H 	 6.8112 	 23.3635 	 64.2801 	 
H 	 9.65299 	 28.7633 	 69.8966 	 
