34

S 	 -46.3987 	 66.8651 	 131.158 	 
C 	 -46.9574 	 65.9259 	 129.774 	 
C 	 -47.0853 	 64.5628 	 130.031 	 
C 	 -46.7551 	 64.3221 	 131.417 	 
C 	 -46.4531 	 65.4197 	 132.206 	 
H 	 -46.8106 	 63.3549 	 131.899 	 
C 	 -47.3628 	 63.4058 	 129.088 	 
H 	 -48.1535 	 63.8202 	 128.465 	 
H 	 -47.8023 	 62.5108 	 129.722 	 
C 	 -46.0546 	 63.0064 	 128.329 	 
H 	 -46.1932 	 62.2122 	 127.588 	 
H 	 -45.7513 	 63.8833 	 127.747 	 
C 	 -44.9192 	 62.5762 	 129.23 	 
H 	 -45.3072 	 61.8967 	 129.968 	 
H 	 -44.1308 	 62.1496 	 128.701 	 
H 	 -44.4925 	 63.4693 	 129.752 	 
S 	 -44.6021 	 66.2262 	 134.23 	 
C 	 -45.1816 	 66.1319 	 135.891 	 
C 	 -46.4442 	 65.6393 	 135.948 	 
C 	 -47.0153 	 65.2356 	 134.712 	 
C 	 -46.1637 	 65.4831 	 133.624 	 
H 	 -46.9155 	 65.702 	 136.873 	 
C 	 -48.4184 	 64.6701 	 134.612 	 
H 	 -48.7432 	 64.3227 	 135.522 	 
H 	 -48.2843 	 63.7843 	 134.012 	 
C 	 -49.5641 	 65.4984 	 134.006 	 
H 	 -49.383 	 65.8626 	 132.951 	 
H 	 -49.563 	 66.4479 	 134.557 	 
C 	 -50.8191 	 64.6793 	 133.884 	 
H 	 -50.6649 	 63.8254 	 133.276 	 
H 	 -51.5247 	 65.3531 	 133.397 	 
H 	 -51.1141 	 64.2766 	 134.878 	 
H 	 -47.1165 	 66.3002 	 128.753 	 
H 	 -44.6344 	 66.6692 	 136.671 	 
