34

S 	 -67.1211 	 37.939 	 140.695 	 
C 	 -68.3981 	 37.266 	 139.737 	 
C 	 -68.0623 	 36.4095 	 138.748 	 
C 	 -66.6539 	 36.4231 	 138.679 	 
C 	 -65.9354 	 37.1819 	 139.606 	 
H 	 -66.0166 	 35.8453 	 138.01 	 
C 	 -69.0367 	 35.9334 	 137.662 	 
H 	 -68.5074 	 35.8796 	 136.704 	 
H 	 -69.7433 	 36.7979 	 137.419 	 
C 	 -69.5725 	 34.4743 	 138.016 	 
H 	 -68.7599 	 33.7421 	 138.125 	 
H 	 -69.9181 	 34.4066 	 139.025 	 
C 	 -70.6697 	 33.9923 	 137.064 	 
H 	 -71.6907 	 34.4013 	 137.248 	 
H 	 -70.4073 	 34.3126 	 136.069 	 
H 	 -70.8796 	 32.919 	 137.09 	 
S 	 -63.9629 	 37.1141 	 141.506 	 
C 	 -62.2689 	 37.2199 	 140.898 	 
C 	 -62.2021 	 37.0605 	 139.56 	 
C 	 -63.4644 	 37.1701 	 138.923 	 
C 	 -64.508 	 37.1717 	 139.81 	 
H 	 -61.183 	 37.0389 	 139.144 	 
C 	 -63.4837 	 37.3011 	 137.394 	 
H 	 -64.3741 	 36.8428 	 136.926 	 
H 	 -62.7302 	 36.7229 	 136.98 	 
C 	 -63.315 	 38.6792 	 136.82 	 
H 	 -63.1889 	 38.7794 	 135.702 	 
H 	 -62.4332 	 39.1549 	 137.217 	 
C 	 -64.6082 	 39.5236 	 137.227 	 
H 	 -64.6099 	 39.7387 	 138.272 	 
H 	 -65.5715 	 39.0295 	 136.989 	 
H 	 -64.7669 	 40.4547 	 136.709 	 
H 	 -69.3854 	 37.6153 	 139.946 	 
H 	 -61.4365 	 37.2632 	 141.578 	 
