34

S 	 -88.2187 	 51.8184 	 132.287 	 
C 	 -88.6995 	 53.4554 	 132.312 	 
C 	 -88.0691 	 54.1024 	 131.26 	 
C 	 -87.3059 	 53.3095 	 130.422 	 
C 	 -87.1557 	 52.0449 	 130.943 	 
H 	 -86.8874 	 53.5383 	 129.539 	 
C 	 -88.1871 	 55.5593 	 130.998 	 
H 	 -88.9753 	 55.9558 	 131.644 	 
H 	 -88.4501 	 55.6114 	 129.913 	 
C 	 -86.983 	 56.5557 	 131.165 	 
H 	 -87.404 	 57.539 	 130.975 	 
H 	 -86.6452 	 56.5814 	 132.166 	 
C 	 -85.7061 	 56.4136 	 130.217 	 
H 	 -84.8567 	 56.9565 	 130.663 	 
H 	 -85.4169 	 55.4479 	 130.327 	 
H 	 -85.8496 	 56.644 	 129.184 	 
S 	 -87.7053 	 49.554 	 129.947 	 
C 	 -86.6862 	 48.8848 	 128.78 	 
C 	 -85.5179 	 49.6302 	 128.576 	 
C 	 -85.5735 	 50.8404 	 129.268 	 
C 	 -86.7018 	 50.9438 	 130.094 	 
H 	 -84.782 	 49.4011 	 127.876 	 
C 	 -84.517 	 51.9465 	 129.2 	 
H 	 -84.7805 	 52.6923 	 129.946 	 
H 	 -84.6587 	 52.5581 	 128.314 	 
C 	 -83.0739 	 51.3505 	 129.228 	 
H 	 -82.3665 	 52.0639 	 128.874 	 
H 	 -82.9397 	 50.6146 	 128.44 	 
C 	 -82.6539 	 51.0817 	 130.674 	 
H 	 -83.3609 	 50.5748 	 131.284 	 
H 	 -82.6703 	 52.07 	 131.14 	 
H 	 -81.7338 	 50.5487 	 130.798 	 
H 	 -89.2706 	 54.0149 	 132.998 	 
H 	 -86.9585 	 48.0188 	 128.159 	 
