34

S 	 -78.5721 	 45.6458 	 138.85 	 
C 	 -78.2954 	 44.111 	 139.512 	 
C 	 -77.4063 	 43.3741 	 138.728 	 
C 	 -77.0531 	 44.0984 	 137.527 	 
C 	 -77.5564 	 45.3853 	 137.438 	 
H 	 -76.4574 	 43.6762 	 136.747 	 
C 	 -77.1089 	 41.9447 	 138.866 	 
H 	 -77.3377 	 41.4626 	 137.928 	 
H 	 -77.6258 	 41.3897 	 139.567 	 
C 	 -75.719 	 41.5382 	 139.148 	 
H 	 -75.3985 	 41.8179 	 140.243 	 
H 	 -75.8188 	 40.4004 	 139.096 	 
C 	 -74.6615 	 41.9934 	 138.131 	 
H 	 -74.7903 	 41.6022 	 137.102 	 
H 	 -74.4579 	 43.0778 	 138.189 	 
H 	 -73.6847 	 41.603 	 138.561 	 
S 	 -77.9992 	 48.0386 	 136.784 	 
C 	 -77.3264 	 48.718 	 135.275 	 
C 	 -76.5085 	 47.7803 	 134.637 	 
C 	 -76.5781 	 46.5126 	 135.257 	 
C 	 -77.3356 	 46.4213 	 136.452 	 
H 	 -75.9528 	 48.1032 	 133.82 	 
C 	 -75.8968 	 45.3737 	 134.499 	 
H 	 -75.3333 	 44.8594 	 135.308 	 
H 	 -75.2394 	 45.799 	 133.707 	 
C 	 -76.9289 	 44.3696 	 133.914 	 
H 	 -77.4136 	 43.8008 	 134.722 	 
H 	 -76.2891 	 43.6532 	 133.382 	 
C 	 -78.03 	 44.9306 	 132.896 	 
H 	 -78.7891 	 44.1931 	 132.505 	 
H 	 -77.456 	 45.2218 	 131.98 	 
H 	 -78.6074 	 45.8113 	 133.325 	 
H 	 -78.7274 	 43.737 	 140.447 	 
H 	 -77.2605 	 49.6934 	 134.949 	 
