34

S 	 22.9052 	 9.61097 	 65.1507 	 
C 	 23.0128 	 11.354 	 65.2802 	 
C 	 22.4858 	 11.7313 	 66.4976 	 
C 	 21.86 	 10.705 	 67.2683 	 
C 	 22.0325 	 9.50296 	 66.6688 	 
H 	 21.2696 	 10.7838 	 68.1945 	 
C 	 22.2614 	 13.1909 	 66.9861 	 
H 	 21.4957 	 13.2501 	 67.7522 	 
H 	 21.8351 	 13.7784 	 66.2382 	 
C 	 23.5909 	 13.9666 	 67.3201 	 
H 	 24.0326 	 13.3422 	 68.0326 	 
H 	 24.043 	 14.001 	 66.3603 	 
C 	 23.5662 	 15.3539 	 67.9683 	 
H 	 23.1278 	 15.0616 	 68.9067 	 
H 	 24.6411 	 15.3881 	 68.2897 	 
H 	 22.9692 	 16.1881 	 67.5536 	 
S 	 20.4131 	 7.40156 	 65.9378 	 
C 	 19.9452 	 6.33229 	 67.2559 	 
C 	 20.7421 	 6.49864 	 68.357 	 
C 	 21.5144 	 7.6948 	 68.3503 	 
C 	 21.4143 	 8.24546 	 67.0655 	 
H 	 20.598 	 5.86097 	 69.1867 	 
C 	 22.3871 	 8.08999 	 69.541 	 
H 	 22.063 	 9.0827 	 69.6445 	 
H 	 23.4214 	 8.17657 	 69.2956 	 
C 	 22.1876 	 7.26261 	 70.8512 	 
H 	 22.4776 	 6.25003 	 70.6331 	 
H 	 21.118 	 7.2642 	 70.96 	 
C 	 22.8581 	 7.94196 	 72.0351 	 
H 	 23.8684 	 8.05176 	 71.8139 	 
H 	 22.7857 	 7.3521 	 72.9745 	 
H 	 22.5207 	 8.93816 	 72.2008 	 
H 	 23.4971 	 12.0555 	 64.6547 	 
H 	 19.1765 	 5.57477 	 67.0959 	 
