34

S 	 55.0019 	 10.9143 	 68.8068 	 
C 	 55.7002 	 12.2055 	 69.7159 	 
C 	 56.4786 	 11.6956 	 70.7217 	 
C 	 56.1547 	 10.3409 	 71.035 	 
C 	 55.4098 	 9.74111 	 70.0399 	 
H 	 56.5185 	 9.74841 	 71.8242 	 
C 	 57.4365 	 12.5575 	 71.5399 	 
H 	 57.3681 	 12.1322 	 72.5793 	 
H 	 57.1933 	 13.6542 	 71.6651 	 
C 	 58.8651 	 12.5935 	 71.085 	 
H 	 58.9206 	 11.7534 	 70.4649 	 
H 	 58.8907 	 13.3713 	 70.239 	 
C 	 59.9897 	 12.6602 	 72.1758 	 
H 	 59.9352 	 13.6746 	 72.581 	 
H 	 59.9238 	 11.9237 	 72.9971 	 
H 	 60.948 	 12.6597 	 71.7269 	 
S 	 55.9156 	 7.11837 	 69.3416 	 
C 	 54.5896 	 5.9664 	 69.5433 	 
C 	 53.3901 	 6.53281 	 69.8253 	 
C 	 53.5609 	 7.91888 	 69.9764 	 
C 	 54.8974 	 8.38755 	 69.9062 	 
H 	 52.5444 	 5.88321 	 69.9992 	 
C 	 52.4284 	 8.81085 	 70.3867 	 
H 	 52.831 	 9.77324 	 70.7452 	 
H 	 51.9107 	 8.38506 	 71.2449 	 
C 	 51.5967 	 9.23834 	 69.1094 	 
H 	 50.9616 	 8.44535 	 68.7865 	 
H 	 52.2977 	 9.42917 	 68.28 	 
C 	 50.613 	 10.3827 	 69.4332 	 
H 	 51.041 	 11.2798 	 69.9576 	 
H 	 49.6002 	 10.0279 	 69.7652 	 
H 	 50.2776 	 10.6537 	 68.4426 	 
H 	 55.7801 	 13.2015 	 69.309 	 
H 	 54.4875 	 4.90568 	 69.3645 	 
