34

S 	 29.7237 	 2.12931 	 71.8266 	 
C 	 30.833 	 3.19013 	 71.0664 	 
C 	 31.4859 	 4.03368 	 71.9622 	 
C 	 31.2218 	 3.63464 	 73.2647 	 
C 	 30.3914 	 2.57085 	 73.4311 	 
H 	 31.4978 	 4.12199 	 74.1846 	 
C 	 32.4 	 5.20063 	 71.5976 	 
H 	 32.5878 	 5.98838 	 72.4073 	 
H 	 31.9758 	 5.71663 	 70.7872 	 
C 	 33.7871 	 4.6067 	 71.2233 	 
H 	 33.6786 	 3.97818 	 70.2498 	 
H 	 34.5064 	 5.46468 	 71.0093 	 
C 	 34.3723 	 3.67547 	 72.2894 	 
H 	 34.0794 	 2.66139 	 72.3413 	 
H 	 35.4643 	 3.67776 	 72.2521 	 
H 	 34.1274 	 4.17214 	 73.2415 	 
S 	 28.1915 	 1.48681 	 74.5763 	 
C 	 28.1981 	 0.752351 	 76.2019 	 
C 	 29.5306 	 0.648397 	 76.5826 	 
C 	 30.493 	 1.26917 	 75.7239 	 
C 	 29.8993 	 1.82031 	 74.5855 	 
H 	 29.715 	 0.148376 	 77.5218 	 
C 	 31.9484 	 1.40395 	 76.0266 	 
H 	 32.4797 	 1.83694 	 75.2223 	 
H 	 32.4524 	 0.436333 	 76.0441 	 
C 	 32.2393 	 2.17415 	 77.3583 	 
H 	 33.3307 	 2.36 	 77.3024 	 
H 	 32.0379 	 1.55089 	 78.2507 	 
C 	 31.6117 	 3.55128 	 77.4528 	 
H 	 31.9964 	 4.11778 	 78.317 	 
H 	 30.579 	 3.56363 	 77.7362 	 
H 	 31.7315 	 4.09954 	 76.6023 	 
H 	 31.0005 	 3.24299 	 70.0436 	 
H 	 27.447 	 0.31464 	 76.775 	 
