34

S 	 -32.6718 	 75.0512 	 167.396 	 
C 	 -31.9716 	 75.3602 	 165.8 	 
C 	 -32.969 	 75.3141 	 164.802 	 
C 	 -34.2761 	 75.076 	 165.34 	 
C 	 -34.2752 	 74.9889 	 166.742 	 
H 	 -35.1986 	 75.1154 	 164.828 	 
C 	 -32.7671 	 75.4343 	 163.305 	 
H 	 -32.0112 	 76.1423 	 163.045 	 
H 	 -33.6216 	 75.869 	 162.804 	 
C 	 -32.4887 	 74.0869 	 162.575 	 
H 	 -31.6047 	 73.639 	 162.84 	 
H 	 -33.1971 	 73.3518 	 162.803 	 
C 	 -32.515 	 74.3754 	 161.101 	 
H 	 -31.697 	 75.0247 	 160.81 	 
H 	 -32.2908 	 73.4859 	 160.439 	 
H 	 -33.4265 	 74.7445 	 160.611 	 
S 	 -35.4122 	 76.5273 	 168.742 	 
C 	 -37.1123 	 76.2101 	 169.035 	 
C 	 -37.6284 	 75.1167 	 168.316 	 
C 	 -36.6104 	 74.3438 	 167.659 	 
C 	 -35.4144 	 75.0754 	 167.625 	 
H 	 -38.611 	 74.7718 	 168.48 	 
C 	 -36.9084 	 73.199 	 166.786 	 
H 	 -36.0507 	 72.6366 	 166.405 	 
H 	 -37.3762 	 73.5748 	 165.901 	 
C 	 -37.8208 	 72.1508 	 167.454 	 
H 	 -38.156 	 71.4613 	 166.661 	 
H 	 -38.6967 	 72.5832 	 167.867 	 
C 	 -37.047 	 71.4166 	 168.537 	 
H 	 -37.6793 	 70.643 	 169 	 
H 	 -36.6898 	 72.1912 	 169.281 	 
H 	 -36.1359 	 70.901 	 168.132 	 
H 	 -30.903 	 75.3981 	 165.595 	 
H 	 -37.7491 	 76.7603 	 169.688 	 
