34

S 	 -49.5556 	 65.7258 	 125.779 	 
C 	 -48.643 	 65.1945 	 124.41 	 
C 	 -47.2828 	 64.9789 	 124.77 	 
C 	 -47.2128 	 64.8532 	 126.215 	 
C 	 -48.384 	 65.1025 	 126.893 	 
H 	 -46.3286 	 64.5236 	 126.742 	 
C 	 -46.1185 	 64.7447 	 123.777 	 
H 	 -45.4565 	 65.6437 	 123.939 	 
H 	 -46.3949 	 64.7395 	 122.747 	 
C 	 -45.3824 	 63.3572 	 124.012 	 
H 	 -44.9571 	 63.4082 	 124.989 	 
H 	 -46.1548 	 62.5834 	 124.071 	 
C 	 -44.2876 	 63.0401 	 123.016 	 
H 	 -44.6226 	 63.2625 	 122.01 	 
H 	 -43.4968 	 63.7853 	 123.155 	 
H 	 -43.8892 	 61.9989 	 123.103 	 
S 	 -47.0886 	 65.6166 	 129.398 	 
C 	 -48.1491 	 65.5013 	 130.831 	 
C 	 -49.344 	 64.8597 	 130.545 	 
C 	 -49.5577 	 64.8615 	 129.16 	 
C 	 -48.4638 	 65.1309 	 128.35 	 
H 	 -50.0251 	 64.5591 	 131.34 	 
C 	 -50.8737 	 64.3918 	 128.65 	 
H 	 -51.1747 	 63.5453 	 129.218 	 
H 	 -50.9581 	 64.1042 	 127.598 	 
C 	 -51.8787 	 65.5709 	 128.653 	 
H 	 -51.5249 	 66.5163 	 128.152 	 
H 	 -52.0561 	 65.929 	 129.679 	 
C 	 -53.281 	 65.2697 	 127.979 	 
H 	 -53.2101 	 65.0749 	 126.926 	 
H 	 -54.1261 	 65.9278 	 128.241 	 
H 	 -53.5903 	 64.287 	 128.369 	 
H 	 -49.0788 	 65.1479 	 123.414 	 
H 	 -47.8315 	 65.5577 	 131.877 	 
