34

S 	 36.1798 	 34.0359 	 54.9486 	 
C 	 37.1546 	 35.119 	 53.9278 	 
C 	 38.0661 	 35.8303 	 54.6865 	 
C 	 38.0375 	 35.4179 	 56.0286 	 
C 	 37.2306 	 34.3709 	 56.3269 	 
H 	 38.6336 	 35.7778 	 56.7689 	 
C 	 39.1345 	 36.8157 	 54.0951 	 
H 	 39.1844 	 36.71 	 53.0477 	 
H 	 40.062 	 36.4045 	 54.5124 	 
C 	 38.923 	 38.2502 	 54.4613 	 
H 	 37.8806 	 38.5904 	 54.3727 	 
H 	 39.4167 	 38.3981 	 55.4868 	 
C 	 39.6346 	 39.1035 	 53.447 	 
H 	 40.5761 	 38.8638 	 53.0965 	 
H 	 39.0605 	 39.1663 	 52.5406 	 
H 	 39.5908 	 40.1187 	 53.9294 	 
S 	 36.5998 	 32.0291 	 57.7393 	 
C 	 36.0513 	 32.136 	 59.3738 	 
C 	 36.3722 	 33.3731 	 59.9124 	 
C 	 36.8453 	 34.3725 	 58.9556 	 
C 	 37.0079 	 33.7858 	 57.676 	 
H 	 36.2126 	 33.5056 	 60.9982 	 
C 	 36.9672 	 35.8339 	 59.2791 	 
H 	 36.6962 	 36.3478 	 58.3396 	 
H 	 38.0433 	 35.9025 	 59.2219 	 
C 	 36.145 	 36.3427 	 60.5069 	 
H 	 36.3117 	 35.7267 	 61.3507 	 
H 	 35.1159 	 36.1416 	 60.2052 	 
C 	 36.3042 	 37.8878 	 60.9403 	 
H 	 35.9265 	 38.5462 	 60.1846 	 
H 	 37.3612 	 37.9684 	 61.1113 	 
H 	 35.554 	 38.0652 	 61.8196 	 
H 	 37.0308 	 35.2387 	 52.8852 	 
H 	 35.7705 	 31.2859 	 60.0066 	 
