34

S 	 -45.4906 	 26.0913 	 83.4267 	 
C 	 -46.504 	 25.4041 	 84.6529 	 
C 	 -45.8502 	 24.4731 	 85.49 	 
C 	 -44.4023 	 24.5497 	 85.2356 	 
C 	 -44.0292 	 25.3906 	 84.2013 	 
H 	 -43.6645 	 23.9679 	 85.7331 	 
C 	 -46.5383 	 23.4705 	 86.4665 	 
H 	 -46.1667 	 22.5016 	 86.1359 	 
H 	 -47.576 	 23.4611 	 86.3447 	 
C 	 -46.287 	 23.5155 	 87.9782 	 
H 	 -46.8517 	 22.6797 	 88.449 	 
H 	 -45.2165 	 23.1652 	 88.1286 	 
C 	 -46.5126 	 24.9147 	 88.5682 	 
H 	 -45.8009 	 25.6221 	 88.1244 	 
H 	 -47.4502 	 25.2828 	 88.463 	 
H 	 -46.3475 	 24.8487 	 89.6682 	 
S 	 -42.3794 	 24.7974 	 82.2222 	 
C 	 -40.6814 	 24.777 	 82.361 	 
C 	 -40.3014 	 25.4282 	 83.4862 	 
C 	 -41.4223 	 25.7973 	 84.2694 	 
C 	 -42.6511 	 25.5416 	 83.7152 	 
H 	 -39.2088 	 25.4551 	 83.7463 	 
C 	 -41.3151 	 26.5614 	 85.6533 	 
H 	 -42.2564 	 26.7906 	 86.0453 	 
H 	 -40.9379 	 27.52 	 85.5172 	 
C 	 -40.6612 	 25.8427 	 86.8065 	 
H 	 -39.6232 	 25.667 	 86.4658 	 
H 	 -41.0819 	 24.813 	 86.9529 	 
C 	 -40.7915 	 26.5875 	 88.1259 	 
H 	 -40.5933 	 27.5894 	 87.9049 	 
H 	 -40.121 	 26.2175 	 88.8867 	 
H 	 -41.7952 	 26.676 	 88.5723 	 
H 	 -47.5163 	 25.5814 	 84.7411 	 
H 	 -39.9366 	 24.3666 	 81.7524 	 
