34

S 	 -100.355 	 40.7506 	 118.735 	 
C 	 -98.8035 	 40.1883 	 118.251 	 
C 	 -97.7874 	 40.8289 	 118.981 	 
C 	 -98.2633 	 41.8399 	 119.858 	 
C 	 -99.6421 	 41.9197 	 119.854 	 
H 	 -97.649 	 42.5021 	 120.473 	 
C 	 -96.3349 	 40.5066 	 118.849 	 
H 	 -96.2337 	 39.6412 	 118.167 	 
H 	 -95.9711 	 40.0861 	 119.785 	 
C 	 -95.4626 	 41.6396 	 118.257 	 
H 	 -96.0259 	 42.1878 	 117.505 	 
H 	 -95.3892 	 42.4362 	 118.876 	 
C 	 -94.0104 	 41.2176 	 117.911 	 
H 	 -93.253 	 41.9593 	 117.663 	 
H 	 -93.62 	 40.741 	 118.845 	 
H 	 -93.9893 	 40.3892 	 117.077 	 
S 	 -102.046 	 43.3578 	 119.864 	 
C 	 -102.558 	 44.0649 	 121.317 	 
C 	 -101.528 	 44.0114 	 122.281 	 
C 	 -100.355 	 43.2617 	 121.894 	 
C 	 -100.456 	 42.8219 	 120.593 	 
H 	 -101.751 	 44.5178 	 123.221 	 
C 	 -99.3122 	 42.9258 	 122.841 	 
H 	 -99.3319 	 43.7719 	 123.489 	 
H 	 -98.356 	 42.9805 	 122.35 	 
C 	 -99.5107 	 41.7093 	 123.819 	 
H 	 -99.2511 	 40.7586 	 123.316 	 
H 	 -100.52 	 41.6088 	 124.276 	 
C 	 -98.5927 	 41.9631 	 125.05 	 
H 	 -97.6421 	 42.2724 	 124.605 	 
H 	 -98.1834 	 41.1661 	 125.666 	 
H 	 -99.1083 	 42.736 	 125.581 	 
H 	 -98.6413 	 39.2822 	 117.727 	 
H 	 -103.493 	 44.4632 	 121.525 	 
