34

S 	 -5.10319 	 -15.6155 	 81.6065 	 
C 	 -5.06362 	 -16.0771 	 83.2525 	 
C 	 -5.5295 	 -15.1232 	 84.1599 	 
C 	 -6.02456 	 -14.0065 	 83.4208 	 
C 	 -6.01518 	 -14.2058 	 82.0515 	 
H 	 -6.41443 	 -13.0575 	 83.7966 	 
C 	 -5.49444 	 -15.2061 	 85.6574 	 
H 	 -5.40745 	 -14.1931 	 85.9439 	 
H 	 -4.52759 	 -15.6506 	 85.9664 	 
C 	 -6.74745 	 -15.8527 	 86.2763 	 
H 	 -7.68368 	 -15.2731 	 85.9969 	 
H 	 -7.09206 	 -16.7852 	 85.8282 	 
C 	 -6.52973 	 -15.8821 	 87.8313 	 
H 	 -5.4348 	 -16.0364 	 88.0201 	 
H 	 -6.60117 	 -14.835 	 88.2352 	 
H 	 -7.14798 	 -16.6034 	 88.4133 	 
S 	 -5.25256 	 -12.2903 	 80.1545 	 
C 	 -6.48186 	 -11.5446 	 79.1632 	 
C 	 -7.75603 	 -11.9556 	 79.6062 	 
C 	 -7.71313 	 -12.9897 	 80.5489 	 
C 	 -6.42196 	 -13.2318 	 81.0374 	 
H 	 -8.60611 	 -11.5244 	 78.982 	 
C 	 -9.01115 	 -13.5884 	 81.121 	 
H 	 -8.82847 	 -14.3096 	 81.855 	 
H 	 -9.42319 	 -14.188 	 80.3103 	 
C 	 -10.0463 	 -12.6595 	 81.6511 	 
H 	 -11.0213 	 -13.091 	 81.7109 	 
H 	 -10.214 	 -11.9282 	 80.9045 	 
C 	 -9.60206 	 -11.9742 	 82.9798 	 
H 	 -10.1526 	 -11.0113 	 83.1071 	 
H 	 -8.57758 	 -11.5436 	 82.8887 	 
H 	 -9.67336 	 -12.3838 	 83.9988 	 
H 	 -4.53892 	 -16.9385 	 83.5271 	 
H 	 -6.35309 	 -10.9612 	 78.3031 	 
