34

S 	 12.3835 	 -13.3202 	 94.3526 	 
C 	 13.596 	 -12.1482 	 94.1707 	 
C 	 13.0849 	 -10.9284 	 93.9889 	 
C 	 11.6401 	 -10.9071 	 94.1418 	 
C 	 11.0995 	 -12.1471 	 94.3789 	 
H 	 11.0587 	 -10.0129 	 94.1466 	 
C 	 13.8657 	 -9.66116 	 93.7957 	 
H 	 13.5531 	 -9.31629 	 92.8354 	 
H 	 14.878 	 -9.98993 	 93.6642 	 
C 	 13.7447 	 -8.59642 	 94.8492 	 
H 	 14.2226 	 -7.71062 	 94.5738 	 
H 	 12.7066 	 -8.19127 	 94.8446 	 
C 	 14.0482 	 -9.02811 	 96.2734 	 
H 	 14.0623 	 -8.10807 	 96.9329 	 
H 	 13.3278 	 -9.70651 	 96.6616 	 
H 	 15.054 	 -9.46484 	 96.473 	 
S 	 9.18543 	 -13.3979 	 95.6287 	 
C 	 7.53371 	 -13.3066 	 95.2346 	 
C 	 7.3154 	 -12.3079 	 94.2716 	 
C 	 8.5726 	 -11.8314 	 93.7349 	 
C 	 9.64622 	 -12.3985 	 94.4021 	 
H 	 6.3222 	 -12.0368 	 93.8772 	 
C 	 8.53983 	 -10.845 	 92.5945 	 
H 	 7.75958 	 -11.1361 	 91.9023 	 
H 	 9.50977 	 -10.8942 	 92.098 	 
C 	 8.30415 	 -9.38505 	 92.9768 	 
H 	 8.78982 	 -9.02464 	 93.8808 	 
H 	 7.29126 	 -9.26623 	 93.2357 	 
C 	 8.44094 	 -8.39437 	 91.7682 	 
H 	 9.19558 	 -8.71156 	 91.0459 	 
H 	 8.72666 	 -7.33422 	 92.0536 	 
H 	 7.47073 	 -8.35477 	 91.2409 	 
H 	 14.6298 	 -12.3308 	 94.2513 	 
H 	 6.69097 	 -13.8521 	 95.676 	 
