34

S 	 -21.7917 	 45.1182 	 56.6501 	 
C 	 -21.0819 	 46.4517 	 57.5017 	 
C 	 -21.088 	 46.2312 	 58.8766 	 
C 	 -21.5097 	 44.9302 	 59.2696 	 
C 	 -21.8414 	 44.1591 	 58.111 	 
H 	 -21.661 	 44.5785 	 60.2211 	 
C 	 -20.9054 	 47.3238 	 59.8789 	 
H 	 -20.2888 	 48.1223 	 59.4339 	 
H 	 -20.3448 	 46.8991 	 60.7335 	 
C 	 -22.2433 	 47.9341 	 60.3611 	 
H 	 -21.9681 	 48.6185 	 61.1812 	 
H 	 -22.7475 	 48.4069 	 59.4897 	 
C 	 -23.1751 	 46.8906 	 61.0481 	 
H 	 -22.9073 	 46.3222 	 61.9575 	 
H 	 -24.0122 	 47.4774 	 61.3434 	 
H 	 -23.591 	 46.1566 	 60.2658 	 
S 	 -22.03 	 41.6233 	 59.2137 	 
C 	 -23.4605 	 40.7164 	 59.0309 	 
C 	 -24.2336 	 41.2131 	 58.0284 	 
C 	 -23.7588 	 42.4692 	 57.5133 	 
C 	 -22.593 	 42.8997 	 58.177 	 
H 	 -25.1328 	 40.7083 	 57.5556 	 
C 	 -24.5203 	 43.2713 	 56.4622 	 
H 	 -25.2097 	 42.6054 	 55.9953 	 
H 	 -23.678 	 43.5491 	 55.8522 	 
C 	 -25.2903 	 44.4234 	 57.0909 	 
H 	 -25.7966 	 44.9486 	 56.2659 	 
H 	 -24.5611 	 45.064 	 57.6235 	 
C 	 -26.227 	 44.0417 	 58.2538 	 
H 	 -26.7119 	 44.9062 	 58.5989 	 
H 	 -25.7113 	 43.6032 	 59.0907 	 
H 	 -26.9818 	 43.3615 	 57.98 	 
H 	 -20.7404 	 47.3966 	 57.0491 	 
H 	 -23.7289 	 39.7495 	 59.4854 	 
