34

S 	 2.40143 	 -10.9199 	 65.632 	 
C 	 3.22037 	 -11.0819 	 67.1994 	 
C 	 4.49747 	 -11.5927 	 67.143 	 
C 	 4.77763 	 -11.9146 	 65.7897 	 
C 	 3.78869 	 -11.6988 	 64.8614 	 
H 	 5.68872 	 -12.4211 	 65.5697 	 
C 	 5.46206 	 -11.9126 	 68.284 	 
H 	 5.71958 	 -12.9754 	 68.2285 	 
H 	 4.78994 	 -11.7311 	 69.1374 	 
C 	 6.74255 	 -11.0937 	 68.3889 	 
H 	 6.48225 	 -9.98874 	 68.3306 	 
H 	 7.17799 	 -11.1583 	 69.3985 	 
C 	 7.83326 	 -11.5443 	 67.4386 	 
H 	 8.81478 	 -11.0969 	 67.7311 	 
H 	 7.95547 	 -12.6401 	 67.3588 	 
H 	 7.62897 	 -11.1936 	 66.4184 	 
S 	 4.86582 	 -13.4039 	 63.0256 	 
C 	 4.20786 	 -13.5486 	 61.3694 	 
C 	 3.0944 	 -12.786 	 61.2437 	 
C 	 2.67394 	 -12.1062 	 62.4531 	 
C 	 3.64089 	 -12.1759 	 63.4839 	 
H 	 2.44152 	 -12.7835 	 60.3274 	 
C 	 1.35592 	 -11.4367 	 62.516 	 
H 	 1.05365 	 -11.0419 	 61.5691 	 
H 	 1.4191 	 -10.5863 	 63.2049 	 
C 	 0.216675 	 -12.3066 	 63.1438 	 
H 	 0.501158 	 -12.5831 	 64.1142 	 
H 	 -0.0559169 	 -13.3029 	 62.6984 	 
C 	 -1.11871 	 -11.5191 	 63.1881 	 
H 	 -1.02426 	 -10.8166 	 63.9887 	 
H 	 -2.03496 	 -12.1082 	 63.2985 	 
H 	 -1.29947 	 -10.9161 	 62.2481 	 
H 	 2.65923 	 -10.7333 	 68.0784 	 
H 	 4.7332 	 -14.0067 	 60.5112 	 
