34

S 	 -49.0259 	 62.3848 	 140.625 	 
C 	 -47.3999 	 61.8135 	 140.92 	 
C 	 -46.5277 	 62.8936 	 141.02 	 
C 	 -47.191 	 64.1652 	 140.894 	 
C 	 -48.575 	 64.1196 	 140.794 	 
H 	 -46.6436 	 65.1087 	 140.779 	 
C 	 -45.0091 	 62.7232 	 141.079 	 
H 	 -44.5712 	 63.23 	 140.284 	 
H 	 -44.8096 	 61.7377 	 140.887 	 
C 	 -44.2582 	 63.0148 	 142.364 	 
H 	 -44.7275 	 63.8658 	 142.798 	 
H 	 -44.4385 	 62.2699 	 143.188 	 
C 	 -42.7147 	 63.241 	 142.285 	 
H 	 -42.2726 	 62.2793 	 141.863 	 
H 	 -42.4534 	 64.0049 	 141.571 	 
H 	 -42.2263 	 63.6813 	 143.239 	 
S 	 -50.7512 	 65.0558 	 139.459 	 
C 	 -51.5558 	 66.4751 	 140.07 	 
C 	 -50.8354 	 67.2043 	 140.968 	 
C 	 -49.731 	 66.3772 	 141.399 	 
C 	 -49.5677 	 65.1668 	 140.718 	 
H 	 -51.1509 	 68.1213 	 141.328 	 
C 	 -49.0016 	 66.7901 	 142.637 	 
H 	 -48.5334 	 65.9409 	 143.151 	 
H 	 -49.8484 	 67.0949 	 143.204 	 
C 	 -47.8868 	 67.7456 	 142.319 	 
H 	 -48.1088 	 68.7511 	 142.074 	 
H 	 -47.371 	 67.455 	 141.402 	 
C 	 -46.8196 	 67.7755 	 143.364 	 
H 	 -46.4438 	 66.7431 	 143.506 	 
H 	 -47.2553 	 68.1751 	 144.236 	 
H 	 -45.9905 	 68.3499 	 142.952 	 
H 	 -47.0602 	 60.847 	 140.615 	 
H 	 -52.3498 	 66.9002 	 139.516 	 
