34

S 	 -44.4805 	 17.9609 	 76.423 	 
C 	 -42.741 	 18.3096 	 76.7794 	 
C 	 -41.9627 	 17.5697 	 75.9171 	 
C 	 -42.7436 	 17.0095 	 74.8191 	 
C 	 -44.126 	 17.2391 	 74.8856 	 
H 	 -42.2946 	 16.3789 	 74.0217 	 
C 	 -40.4345 	 17.556 	 75.9816 	 
H 	 -40.0201 	 16.7896 	 75.3458 	 
H 	 -40.2201 	 17.1598 	 76.9793 	 
C 	 -39.7058 	 18.8509 	 75.6721 	 
H 	 -39.7876 	 19.2184 	 74.6521 	 
H 	 -40.1431 	 19.6619 	 76.3141 	 
C 	 -38.2269 	 18.7478 	 75.966 	 
H 	 -37.8226 	 19.7565 	 75.8046 	 
H 	 -37.9885 	 18.4072 	 76.9754 	 
H 	 -37.7597 	 18.0636 	 75.2232 	 
S 	 -45.9511 	 15.2043 	 74.4515 	 
C 	 -46.3666 	 14.7638 	 72.8025 	 
C 	 -46.0534 	 15.8275 	 71.9545 	 
C 	 -45.2312 	 16.8067 	 72.5244 	 
C 	 -44.9859 	 16.5633 	 73.8733 	 
H 	 -46.3872 	 15.7776 	 71.0031 	 
C 	 -44.6898 	 17.9605 	 71.7274 	 
H 	 -44.9303 	 18.9409 	 72.0971 	 
H 	 -45.203 	 17.9838 	 70.8019 	 
C 	 -43.1397 	 18.0005 	 71.5179 	 
H 	 -43.0088 	 16.9073 	 71.2841 	 
H 	 -42.4866 	 18.188 	 72.478 	 
C 	 -42.6319 	 18.7793 	 70.2586 	 
H 	 -42.5838 	 19.8137 	 70.4281 	 
H 	 -43.2973 	 18.6587 	 69.4033 	 
H 	 -41.545 	 18.5089 	 70.1164 	 
H 	 -42.4285 	 18.992 	 77.556 	 
H 	 -46.9123 	 13.924 	 72.5435 	 
