34

S 	 -46.6625 	 67.5326 	 131.987 	 
C 	 -47.849 	 67.143 	 130.698 	 
C 	 -48.1719 	 65.7745 	 130.713 	 
C 	 -47.539 	 65.1413 	 131.852 	 
C 	 -46.6992 	 65.9288 	 132.57 	 
H 	 -47.8662 	 64.1719 	 132.201 	 
C 	 -49.056 	 65.0048 	 129.741 	 
H 	 -49.3559 	 65.7506 	 128.917 	 
H 	 -49.9451 	 64.6154 	 130.312 	 
C 	 -48.2518 	 63.8606 	 128.951 	 
H 	 -48.7884 	 63.5913 	 128.034 	 
H 	 -47.3925 	 64.2675 	 128.597 	 
C 	 -47.9821 	 62.5636 	 129.719 	 
H 	 -48.9213 	 62.1725 	 130.059 	 
H 	 -47.4927 	 61.7824 	 129.067 	 
H 	 -47.3632 	 62.7098 	 130.526 	 
S 	 -44.202 	 65.8666 	 133.84 	 
C 	 -44.0509 	 65.115 	 135.435 	 
C 	 -45.2904 	 64.7488 	 135.891 	 
C 	 -46.3562 	 64.9055 	 134.939 	 
C 	 -45.9805 	 65.6064 	 133.774 	 
H 	 -45.4049 	 64.2735 	 136.845 	 
C 	 -47.7862 	 64.4716 	 135.219 	 
H 	 -47.7996 	 63.6787 	 135.966 	 
H 	 -48.324 	 64.0839 	 134.414 	 
C 	 -48.601 	 65.6521 	 135.796 	 
H 	 -48.5824 	 66.6173 	 135.178 	 
H 	 -48.1078 	 65.8999 	 136.737 	 
C 	 -50.0407 	 65.2104 	 136.114 	 
H 	 -50.0729 	 64.3149 	 136.765 	 
H 	 -50.594 	 65.0212 	 135.232 	 
H 	 -50.6437 	 65.9628 	 136.627 	 
H 	 -48.1884 	 67.8745 	 130.016 	 
H 	 -43.1178 	 64.9717 	 135.989 	 
