34

S 	 -109.016 	 43.2026 	 131.599 	 
C 	 -108.493 	 42.7451 	 133.246 	 
C 	 -109.238 	 43.3937 	 134.226 	 
C 	 -110.341 	 44.163 	 133.626 	 
C 	 -110.425 	 44.0599 	 132.278 	 
H 	 -111.049 	 44.79 	 134.065 	 
C 	 -109.158 	 43.3924 	 135.768 	 
H 	 -109.439 	 44.4321 	 136.143 	 
H 	 -108.11 	 43.2297 	 135.856 	 
C 	 -109.929 	 42.3555 	 136.626 	 
H 	 -109.55 	 42.5212 	 137.635 	 
H 	 -110.975 	 42.5266 	 136.446 	 
C 	 -109.626 	 40.8904 	 136.274 	 
H 	 -109.944 	 40.1666 	 137.043 	 
H 	 -110.086 	 40.6549 	 135.287 	 
H 	 -108.537 	 40.7598 	 136.237 	 
S 	 -110.939 	 45.4676 	 129.955 	 
C 	 -112.542 	 46.185 	 129.688 	 
C 	 -113.381 	 45.8124 	 130.722 	 
C 	 -112.766 	 45.0207 	 131.75 	 
C 	 -111.46 	 44.7211 	 131.454 	 
H 	 -114.425 	 46.0805 	 130.657 	 
C 	 -113.571 	 44.526 	 132.975 	 
H 	 -113.261 	 45.1132 	 133.871 	 
H 	 -113.35 	 43.4889 	 133.098 	 
C 	 -115.061 	 44.5967 	 132.827 	 
H 	 -115.536 	 44.1985 	 131.949 	 
H 	 -115.238 	 45.6637 	 132.924 	 
C 	 -115.798 	 43.9405 	 133.971 	 
H 	 -116.875 	 44.2203 	 133.672 	 
H 	 -115.703 	 44.5602 	 134.86 	 
H 	 -115.61 	 42.8606 	 134.192 	 
H 	 -107.539 	 42.2029 	 133.356 	 
H 	 -112.768 	 46.7849 	 128.878 	 
