34

S 	 -47.7181 	 61.629 	 128.94 	 
C 	 -47.7828 	 60.2787 	 127.82 	 
C 	 -47.0782 	 59.1637 	 128.363 	 
C 	 -46.347 	 59.5651 	 129.562 	 
C 	 -46.6547 	 60.7897 	 130.094 	 
H 	 -45.635 	 58.8689 	 129.973 	 
C 	 -46.7289 	 57.9098 	 127.615 	 
H 	 -45.7166 	 58.0221 	 127.545 	 
H 	 -47.0893 	 57.9466 	 126.535 	 
C 	 -47.114 	 56.543 	 128.259 	 
H 	 -46.5012 	 55.7929 	 127.81 	 
H 	 -46.8762 	 56.665 	 129.323 	 
C 	 -48.5809 	 56.2117 	 128.074 	 
H 	 -48.77 	 56.1689 	 127.033 	 
H 	 -48.8411 	 55.2651 	 128.51 	 
H 	 -49.2139 	 56.9623 	 128.534 	 
S 	 -44.7786 	 62.6787 	 130.732 	 
C 	 -44.3132 	 62.9189 	 132.372 	 
C 	 -44.9988 	 62.0635 	 133.186 	 
C 	 -45.9855 	 61.2888 	 132.551 	 
C 	 -46.0161 	 61.5328 	 131.212 	 
H 	 -44.7601 	 62.0982 	 134.198 	 
C 	 -46.932 	 60.4865 	 133.3 	 
H 	 -47.8714 	 60.7602 	 132.723 	 
H 	 -47.1785 	 60.8168 	 134.333 	 
C 	 -46.5993 	 58.9767 	 133.515 	 
H 	 -45.8403 	 58.9181 	 134.258 	 
H 	 -46.266 	 58.4513 	 132.655 	 
C 	 -47.8091 	 58.2139 	 134.048 	 
H 	 -48.069 	 58.658 	 135.002 	 
H 	 -47.67 	 57.1936 	 134.087 	 
H 	 -48.6142 	 58.3616 	 133.398 	 
H 	 -48.3416 	 60.3744 	 126.931 	 
H 	 -43.4852 	 63.5217 	 132.636 	 
