34

S 	 -22.8649 	 46.3612 	 62.8902 	 
C 	 -21.5931 	 47.4884 	 62.5009 	 
C 	 -21.9939 	 48.8009 	 62.7478 	 
C 	 -23.2602 	 48.8625 	 63.3856 	 
C 	 -23.8422 	 47.6134 	 63.6057 	 
H 	 -23.7751 	 49.7323 	 63.6481 	 
C 	 -21.1821 	 50.0538 	 62.3474 	 
H 	 -21.7923 	 50.6534 	 61.6752 	 
H 	 -20.3429 	 49.7614 	 61.7589 	 
C 	 -20.6835 	 50.9261 	 63.5051 	 
H 	 -20.3287 	 51.8105 	 63.1045 	 
H 	 -21.5741 	 51.1632 	 64.0649 	 
C 	 -19.629 	 50.3798 	 64.462 	 
H 	 -19.2622 	 51.1353 	 65.1811 	 
H 	 -20.0309 	 49.6432 	 65.1618 	 
H 	 -18.7339 	 50.1416 	 63.9054 	 
S 	 -26.4645 	 46.7707 	 63.5229 	 
C 	 -27.3673 	 47.0009 	 64.9384 	 
C 	 -26.6393 	 47.459 	 65.9853 	 
C 	 -25.2918 	 47.6791 	 65.6764 	 
C 	 -25.0199 	 47.3561 	 64.3872 	 
H 	 -27.1858 	 47.5568 	 66.9726 	 
C 	 -24.3066 	 48.329 	 66.6277 	 
H 	 -24.9708 	 48.906 	 67.2285 	 
H 	 -23.66 	 48.958 	 66.0347 	 
C 	 -23.3403 	 47.4994 	 67.4995 	 
H 	 -22.888 	 48.1157 	 68.2239 	 
H 	 -22.6169 	 47.1631 	 66.7772 	 
C 	 -23.8749 	 46.2253 	 68.124 	 
H 	 -24.4874 	 45.5914 	 67.4443 	 
H 	 -24.6058 	 46.4993 	 68.9268 	 
H 	 -23.1252 	 45.6097 	 68.6451 	 
H 	 -20.5956 	 47.1902 	 62.1028 	 
H 	 -28.3596 	 46.5772 	 65.0015 	 
