34

S 	 14.0372 	 -12.2187 	 76.9389 	 
C 	 14.9691 	 -11.1472 	 77.9942 	 
C 	 16.3248 	 -11.4682 	 77.9467 	 
C 	 16.6876 	 -12.5206 	 77.0917 	 
C 	 15.5535 	 -13.0343 	 76.395 	 
H 	 17.7336 	 -12.897 	 76.9275 	 
C 	 17.411 	 -10.759 	 78.666 	 
H 	 17.619 	 -9.86642 	 78.1714 	 
H 	 18.2819 	 -11.3846 	 78.524 	 
C 	 17.0426 	 -10.5151 	 80.1193 	 
H 	 16.1756 	 -9.90141 	 80.1199 	 
H 	 16.8369 	 -11.3571 	 80.7401 	 
C 	 18.0859 	 -9.74763 	 80.8864 	 
H 	 18.2163 	 -8.782 	 80.3618 	 
H 	 17.7198 	 -9.45098 	 81.8642 	 
H 	 19.0689 	 -10.1811 	 80.9882 	 
S 	 15.3265 	 -15.5945 	 75.2798 	 
C 	 15.5832 	 -15.7095 	 73.6278 	 
C 	 15.5296 	 -14.5038 	 72.9747 	 
C 	 15.5104 	 -13.3936 	 73.869 	 
C 	 15.5775 	 -13.8556 	 75.1997 	 
H 	 15.6186 	 -14.404 	 71.9423 	 
C 	 15.5495 	 -11.9964 	 73.3585 	 
H 	 15.9379 	 -12.1023 	 72.3875 	 
H 	 16.2624 	 -11.5031 	 73.9888 	 
C 	 14.1626 	 -11.3424 	 73.191 	 
H 	 13.8198 	 -11.2369 	 74.1752 	 
H 	 13.4623 	 -11.9543 	 72.6653 	 
C 	 14.1167 	 -9.90676 	 72.5696 	 
H 	 14.3612 	 -9.94959 	 71.4967 	 
H 	 14.8201 	 -9.1499 	 73.0179 	 
H 	 13.046 	 -9.67209 	 72.6565 	 
H 	 14.6746 	 -10.1687 	 78.5119 	 
H 	 15.6916 	 -16.7321 	 73.2766 	 
