34

S 	 -69.9843 	 50.7327 	 126.137 	 
C 	 -70.9459 	 51.5928 	 127.276 	 
C 	 -70.1396 	 52.5477 	 127.94 	 
C 	 -68.8318 	 52.5966 	 127.369 	 
C 	 -68.6073 	 51.7566 	 126.29 	 
H 	 -67.9997 	 53.1871 	 127.778 	 
C 	 -70.6176 	 53.5548 	 128.967 	 
H 	 -70.0568 	 53.4465 	 129.958 	 
H 	 -71.6344 	 53.3861 	 129.343 	 
C 	 -70.6615 	 54.9359 	 128.346 	 
H 	 -69.6847 	 55.2188 	 127.905 	 
H 	 -71.2585 	 54.9191 	 127.504 	 
C 	 -71.1433 	 56.0523 	 129.347 	 
H 	 -72.1358 	 55.7179 	 129.755 	 
H 	 -70.3064 	 56.2145 	 130.067 	 
H 	 -71.2648 	 56.9813 	 128.745 	 
S 	 -66.364 	 50.243 	 125.81 	 
C 	 -65.1423 	 50.7348 	 124.725 	 
C 	 -65.4794 	 52.0165 	 124.264 	 
C 	 -66.7073 	 52.5439 	 124.713 	 
C 	 -67.3537 	 51.677 	 125.529 	 
H 	 -64.8812 	 52.5028 	 123.46 	 
C 	 -67.1839 	 53.789 	 124.16 	 
H 	 -66.5109 	 54.6083 	 123.947 	 
H 	 -67.8417 	 54.1968 	 125.009 	 
C 	 -68.2499 	 53.6578 	 123.076 	 
H 	 -69.029 	 53.1349 	 123.667 	 
H 	 -67.906 	 52.8862 	 122.43 	 
C 	 -68.7146 	 54.9862 	 122.458 	 
H 	 -68.1416 	 55.3823 	 121.653 	 
H 	 -68.8396 	 55.8082 	 123.187 	 
H 	 -69.7453 	 54.8396 	 122.1 	 
H 	 -71.9234 	 51.3349 	 127.589 	 
H 	 -64.2054 	 50.235 	 124.454 	 
