34

S 	 -108.607 	 38.6489 	 128.212 	 
C 	 -106.865 	 38.6145 	 128.506 	 
C 	 -106.256 	 39.7396 	 128.138 	 
C 	 -107.248 	 40.7007 	 127.715 	 
C 	 -108.603 	 40.3263 	 127.848 	 
H 	 -106.967 	 41.753 	 127.397 	 
C 	 -104.791 	 39.9217 	 127.907 	 
H 	 -104.742 	 40.6056 	 126.995 	 
H 	 -104.405 	 38.9869 	 127.676 	 
C 	 -103.982 	 40.4641 	 129.137 	 
H 	 -102.874 	 40.3715 	 128.892 	 
H 	 -104.189 	 41.4508 	 129.401 	 
C 	 -104.182 	 39.7521 	 130.513 	 
H 	 -103.559 	 40.1812 	 131.341 	 
H 	 -105.21 	 39.9456 	 130.735 	 
H 	 -103.94 	 38.7324 	 130.506 	 
S 	 -111.007 	 40.493 	 126.355 	 
C 	 -111.844 	 42.021 	 126.193 	 
C 	 -111.113 	 43.0045 	 126.9 	 
C 	 -110.003 	 42.5435 	 127.676 	 
C 	 -109.749 	 41.1573 	 127.455 	 
H 	 -111.411 	 44.062 	 126.901 	 
C 	 -109.208 	 43.4555 	 128.619 	 
H 	 -108.407 	 42.8256 	 129.091 	 
H 	 -109.825 	 43.6846 	 129.505 	 
C 	 -108.581 	 44.6903 	 128.092 	 
H 	 -109.395 	 45.3495 	 127.605 	 
H 	 -107.935 	 44.3661 	 127.246 	 
C 	 -107.898 	 45.5065 	 129.174 	 
H 	 -107.051 	 46.0205 	 128.689 	 
H 	 -107.474 	 44.8213 	 129.893 	 
H 	 -108.623 	 46.1705 	 129.694 	 
H 	 -106.363 	 37.7029 	 128.785 	 
H 	 -112.848 	 42.1936 	 125.643 	 
