34

S 	 -57.4036 	 38.9606 	 111.063 	 
C 	 -56.1946 	 40.0828 	 110.385 	 
C 	 -56.7134 	 41.0518 	 109.565 	 
C 	 -58.1221 	 40.9915 	 109.552 	 
C 	 -58.6827 	 39.9205 	 110.17 	 
H 	 -58.7653 	 41.6939 	 109.003 	 
C 	 -55.9392 	 42.107 	 108.861 	 
H 	 -56.2199 	 42.2394 	 107.834 	 
H 	 -54.8356 	 41.8947 	 108.785 	 
C 	 -56.0348 	 43.5483 	 109.369 	 
H 	 -55.5196 	 44.2175 	 108.748 	 
H 	 -57.1369 	 43.9122 	 109.257 	 
C 	 -55.4706 	 43.6825 	 110.808 	 
H 	 -56.1342 	 43.2196 	 111.532 	 
H 	 -54.4551 	 43.175 	 110.875 	 
H 	 -55.3938 	 44.7824 	 111.066 	 
S 	 -60.612 	 37.8987 	 110.176 	 
C 	 -62.3245 	 38.2374 	 109.974 	 
C 	 -62.4542 	 39.5782 	 110.305 	 
C 	 -61.2084 	 40.3424 	 110.332 	 
C 	 -60.1026 	 39.5581 	 110.289 	 
H 	 -63.4279 	 40.1292 	 110.305 	 
C 	 -61.2067 	 41.8818 	 110.565 	 
H 	 -60.2243 	 42.1857 	 110.955 	 
H 	 -61.879 	 42.0909 	 111.433 	 
C 	 -61.781 	 42.6966 	 109.39 	 
H 	 -62.818 	 42.4282 	 109.149 	 
H 	 -61.1596 	 42.4237 	 108.556 	 
C 	 -61.5284 	 44.1943 	 109.371 	 
H 	 -60.481 	 44.4492 	 109.222 	 
H 	 -61.9843 	 44.7098 	 110.191 	 
H 	 -61.8837 	 44.5812 	 108.422 	 
H 	 -55.122 	 40.1021 	 110.486 	 
H 	 -63.1607 	 37.5947 	 109.989 	 
