34

S 	 -5.04881 	 -6.84234 	 77.6844 	 
C 	 -4.27929 	 -7.91202 	 78.8079 	 
C 	 -5.22773 	 -8.55574 	 79.5451 	 
C 	 -6.51012 	 -7.95939 	 79.3739 	 
C 	 -6.69496 	 -7.00782 	 78.389 	 
H 	 -7.40642 	 -8.26017 	 79.9104 	 
C 	 -5.0864 	 -9.61711 	 80.6195 	 
H 	 -4.96996 	 -9.10934 	 81.5898 	 
H 	 -4.16708 	 -10.157 	 80.4774 	 
C 	 -6.22864 	 -10.5971 	 80.8423 	 
H 	 -7.0937 	 -10.1742 	 81.3057 	 
H 	 -6.53773 	 -10.9878 	 79.8673 	 
C 	 -5.76884 	 -11.7451 	 81.7707 	 
H 	 -6.47436 	 -12.5637 	 81.7818 	 
H 	 -4.84488 	 -12.2407 	 81.7194 	 
H 	 -5.93004 	 -11.4426 	 82.7904 	 
S 	 -7.84169 	 -4.47122 	 78.3742 	 
C 	 -9.56117 	 -4.37207 	 78.077 	 
C 	 -10.1114 	 -5.6231 	 77.8339 	 
C 	 -9.16373 	 -6.72093 	 77.9597 	 
C 	 -7.92863 	 -6.21564 	 78.2564 	 
H 	 -11.1682 	 -5.77666 	 77.6532 	 
C 	 -9.52545 	 -8.14946 	 77.7043 	 
H 	 -8.75493 	 -8.76489 	 78.0362 	 
H 	 -9.62562 	 -8.1946 	 76.6667 	 
C 	 -10.8115 	 -8.51207 	 78.4883 	 
H 	 -11.6199 	 -7.88147 	 78.2161 	 
H 	 -10.7097 	 -8.18539 	 79.4726 	 
C 	 -11.3854 	 -9.94371 	 78.4116 	 
H 	 -10.8481 	 -10.6619 	 79.0264 	 
H 	 -11.3683 	 -10.2929 	 77.3841 	 
H 	 -12.449 	 -10.0087 	 78.6968 	 
H 	 -3.20618 	 -7.98656 	 78.8507 	 
H 	 -10.0742 	 -3.40139 	 78.0569 	 
