34

S 	 -35.2993 	 47.7616 	 94.6345 	 
C 	 -33.6912 	 47.3595 	 94.6959 	 
C 	 -32.8774 	 48.4109 	 95.1773 	 
C 	 -33.6266 	 49.5945 	 95.4751 	 
C 	 -34.9949 	 49.3995 	 95.216 	 
H 	 -33.197 	 50.4531 	 95.9482 	 
C 	 -31.3534 	 48.4583 	 94.988 	 
H 	 -31.0609 	 49.4503 	 95.3231 	 
H 	 -30.936 	 48.5477 	 94.0048 	 
C 	 -30.5215 	 47.4959 	 95.8581 	 
H 	 -30.5583 	 46.4539 	 95.5241 	 
H 	 -29.449 	 47.7649 	 95.8926 	 
C 	 -30.9985 	 47.395 	 97.3794 	 
H 	 -30.5221 	 46.6308 	 97.9499 	 
H 	 -30.7175 	 48.3466 	 97.8452 	 
H 	 -32.0246 	 47.2279 	 97.5222 	 
S 	 -37.143 	 50.2804 	 93.905 	 
C 	 -38.0457 	 51.7031 	 94.4027 	 
C 	 -37.5441 	 52.2165 	 95.6035 	 
C 	 -36.41 	 51.4799 	 96.0753 	 
C 	 -36.0802 	 50.4021 	 95.2721 	 
H 	 -38.0275 	 53.1465 	 95.9905 	 
C 	 -35.8308 	 51.8736 	 97.4416 	 
H 	 -36.1929 	 52.8275 	 97.6979 	 
H 	 -34.7161 	 52.0117 	 97.2763 	 
C 	 -36.1439 	 50.9873 	 98.5807 	 
H 	 -35.9055 	 49.9195 	 98.3769 	 
H 	 -37.2617 	 50.9733 	 98.575 	 
C 	 -35.6569 	 51.4742 	 99.9682 	 
H 	 -35.7078 	 50.6196 	 100.642 	 
H 	 -36.1975 	 52.3072 	 100.519 	 
H 	 -34.598 	 51.7985 	 99.9341 	 
H 	 -33.2115 	 46.3746 	 94.3594 	 
H 	 -38.9682 	 52.0169 	 94.0019 	 
