34

S 	 -4.3263 	 6.78108 	 81.9192 	 
C 	 -6.03827 	 6.54119 	 81.9509 	 
C 	 -6.61646 	 7.67154 	 81.4222 	 
C 	 -5.68636 	 8.74588 	 81.2486 	 
C 	 -4.43909 	 8.46049 	 81.7205 	 
H 	 -5.92138 	 9.74279 	 80.856 	 
C 	 -8.0332 	 7.74777 	 80.8739 	 
H 	 -8.43424 	 8.77859 	 80.7313 	 
H 	 -8.65284 	 7.34383 	 81.7685 	 
C 	 -8.33176 	 6.85137 	 79.6243 	 
H 	 -9.26488 	 7.15182 	 79.2306 	 
H 	 -7.46785 	 6.93018 	 78.959 	 
C 	 -8.45653 	 5.36747 	 79.8689 	 
H 	 -7.5204 	 4.93119 	 80.2929 	 
H 	 -9.1464 	 5.32414 	 80.6404 	 
H 	 -8.64042 	 4.69792 	 78.9957 	 
S 	 -1.89202 	 8.94108 	 80.7186 	 
C 	 -1.0171 	 10.3855 	 81.1283 	 
C 	 -1.828 	 11.1891 	 81.8297 	 
C 	 -3.06973 	 10.6039 	 82.2642 	 
C 	 -3.26271 	 9.34584 	 81.7378 	 
H 	 -1.54937 	 12.2218 	 82.0868 	 
C 	 -4.07234 	 11.443 	 83.0173 	 
H 	 -3.68652 	 11.5815 	 84.0181 	 
H 	 -4.99517 	 10.921 	 83.0715 	 
C 	 -4.27178 	 12.8125 	 82.5221 	 
H 	 -4.84893 	 12.7798 	 81.579 	 
H 	 -3.39399 	 13.2762 	 82.1427 	 
C 	 -5.00013 	 13.7478 	 83.5078 	 
H 	 -4.4656 	 13.8448 	 84.4566 	 
H 	 -5.92337 	 13.1513 	 83.7153 	 
H 	 -5.28211 	 14.7379 	 83.0942 	 
H 	 -6.45967 	 5.54699 	 82.1306 	 
H 	 -0.112423 	 10.6806 	 80.768 	 
