34

S 	 -35.5938 	 71.9627 	 169.088 	 
C 	 -34.2181 	 72.7678 	 168.346 	 
C 	 -34.5699 	 73.8404 	 167.562 	 
C 	 -36.0051 	 73.9951 	 167.631 	 
C 	 -36.6093 	 73.2697 	 168.633 	 
H 	 -36.6097 	 74.7703 	 167.2 	 
C 	 -33.7462 	 74.7202 	 166.606 	 
H 	 -34.4435 	 75.5216 	 166.273 	 
H 	 -33.4342 	 74.1117 	 165.753 	 
C 	 -32.6124 	 75.4595 	 167.343 	 
H 	 -33.0745 	 75.8463 	 168.239 	 
H 	 -31.8049 	 74.7241 	 167.725 	 
C 	 -31.9504 	 76.4925 	 166.471 	 
H 	 -32.6926 	 76.9801 	 165.841 	 
H 	 -31.2977 	 77.1613 	 167.034 	 
H 	 -31.2902 	 76.0225 	 165.777 	 
S 	 -39.1261 	 72.2135 	 169.08 	 
C 	 -40.4495 	 73.2512 	 169.615 	 
C 	 -40.0184 	 74.5736 	 169.759 	 
C 	 -38.6355 	 74.7224 	 169.437 	 
C 	 -37.998 	 73.5241 	 169.086 	 
H 	 -40.768 	 75.2798 	 170.056 	 
C 	 -37.9507 	 76.0261 	 169.771 	 
H 	 -36.8762 	 76.0018 	 169.658 	 
H 	 -38.1846 	 76.225 	 170.781 	 
C 	 -38.5098 	 77.2414 	 168.932 	 
H 	 -37.8574 	 78.14 	 169.07 	 
H 	 -39.5186 	 77.3299 	 169.333 	 
C 	 -38.7129 	 76.9822 	 167.386 	 
H 	 -37.8235 	 76.9578 	 166.684 	 
H 	 -39.2221 	 77.841 	 167.003 	 
H 	 -39.3337 	 76.2074 	 167.183 	 
H 	 -33.1952 	 72.5305 	 168.331 	 
H 	 -41.516 	 72.9097 	 169.735 	 
