34

S 	 36.971 	 23.4591 	 84.2876 	 
C 	 35.6247 	 24.1032 	 85.2227 	 
C 	 36.1269 	 25.0207 	 86.1666 	 
C 	 37.5532 	 25.0886 	 86.2103 	 
C 	 38.1278 	 24.3268 	 85.2315 	 
H 	 38.1374 	 25.6839 	 86.8725 	 
C 	 35.2497 	 25.6587 	 87.2201 	 
H 	 35.3643 	 25.0795 	 88.1007 	 
H 	 34.1866 	 25.7281 	 86.9025 	 
C 	 35.6219 	 27.1864 	 87.4616 	 
H 	 36.677 	 27.1222 	 87.8329 	 
H 	 35.7216 	 27.6516 	 86.4851 	 
C 	 34.6115 	 27.8472 	 88.4117 	 
H 	 34.6315 	 27.2633 	 89.3693 	 
H 	 35.0031 	 28.8436 	 88.7426 	 
H 	 33.6385 	 27.8811 	 87.9526 	 
S 	 40.2559 	 22.6713 	 85.4486 	 
C 	 41.8723 	 23.1793 	 84.9147 	 
C 	 41.7806 	 24.4253 	 84.3236 	 
C 	 40.5138 	 25.0246 	 84.4133 	 
C 	 39.5747 	 24.1438 	 84.9314 	 
H 	 42.6918 	 24.9466 	 83.9627 	 
C 	 40.2607 	 26.4041 	 83.7846 	 
H 	 39.6217 	 26.214 	 82.9014 	 
H 	 41.2701 	 26.7234 	 83.4764 	 
C 	 39.6197 	 27.553 	 84.6924 	 
H 	 38.602 	 27.2762 	 85.0926 	 
H 	 39.5405 	 28.4567 	 84.0296 	 
C 	 40.5251 	 27.9656 	 85.9475 	 
H 	 40.0692 	 28.7554 	 86.5992 	 
H 	 41.5448 	 28.3054 	 85.7066 	 
H 	 40.4743 	 27.0767 	 86.5771 	 
H 	 34.5382 	 23.9331 	 85.0796 	 
H 	 42.7951 	 22.6584 	 85.1161 	 
