34

S 	 -16.4437 	 35.3046 	 37.7051 	 
C 	 -15.8058 	 34.5402 	 36.2168 	 
C 	 -14.6102 	 35.1568 	 35.8473 	 
C 	 -14.1277 	 35.8971 	 36.95 	 
C 	 -14.9775 	 36.0897 	 38.0049 	 
H 	 -13.0982 	 36.2177 	 36.9263 	 
C 	 -13.7842 	 34.8069 	 34.6996 	 
H 	 -12.9733 	 35.4767 	 34.7132 	 
H 	 -14.4004 	 34.8718 	 33.7823 	 
C 	 -13.2301 	 33.3937 	 34.7295 	 
H 	 -14.0523 	 32.7124 	 34.5985 	 
H 	 -12.4843 	 33.2764 	 33.9282 	 
C 	 -12.4153 	 33.0837 	 35.96 	 
H 	 -12.1313 	 31.9812 	 35.9351 	 
H 	 -11.5007 	 33.5737 	 36.0639 	 
H 	 -12.9855 	 33.1546 	 36.8689 	 
S 	 -15.1805 	 38.4967 	 39.3202 	 
C 	 -14.6723 	 38.6171 	 41.001 	 
C 	 -13.9267 	 37.4796 	 41.3911 	 
C 	 -13.8857 	 36.4706 	 40.3635 	 
C 	 -14.6064 	 36.8428 	 39.2588 	 
H 	 -13.5609 	 37.3725 	 42.3807 	 
C 	 -13.1611 	 35.124 	 40.4611 	 
H 	 -12.897 	 34.8437 	 39.4445 	 
H 	 -13.8689 	 34.3644 	 40.9175 	 
C 	 -11.8427 	 35.1999 	 41.2143 	 
H 	 -11.9434 	 35.5421 	 42.191 	 
H 	 -11.2886 	 35.9834 	 40.8158 	 
C 	 -10.9513 	 33.9813 	 41.2034 	 
H 	 -9.92314 	 34.3082 	 41.4886 	 
H 	 -10.8623 	 33.5015 	 40.1887 	 
H 	 -11.3036 	 33.2139 	 41.9425 	 
H 	 -16.3367 	 34.0718 	 35.4909 	 
H 	 -14.9024 	 39.4179 	 41.6601 	 
