34

S 	 -56.1366 	 37.5888 	 92.0681 	 
C 	 -57.7648 	 36.9525 	 92.4101 	 
C 	 -58.2289 	 36.1381 	 91.4333 	 
C 	 -57.22 	 35.8674 	 90.4415 	 
C 	 -56.069 	 36.6025 	 90.6653 	 
H 	 -57.3884 	 35.1232 	 89.6034 	 
C 	 -59.7387 	 35.751 	 91.3196 	 
H 	 -59.9662 	 35.2812 	 90.4098 	 
H 	 -60.2608 	 36.7131 	 91.3196 	 
C 	 -60.3235 	 34.895 	 92.4623 	 
H 	 -60.0914 	 35.3998 	 93.4182 	 
H 	 -61.3417 	 34.7247 	 92.1736 	 
C 	 -59.5874 	 33.5789 	 92.6266 	 
H 	 -58.8125 	 33.5375 	 93.3268 	 
H 	 -60.2098 	 32.7578 	 92.8841 	 
H 	 -59.1147 	 33.1306 	 91.6727 	 
S 	 -53.2946 	 36.0583 	 90.761 	 
C 	 -52.4664 	 35.978 	 89.2985 	 
C 	 -53.2315 	 36.4755 	 88.2342 	 
C 	 -54.6005 	 36.5717 	 88.5495 	 
C 	 -54.7718 	 36.478 	 89.9387 	 
H 	 -52.7356 	 36.7135 	 87.2829 	 
C 	 -55.5806 	 37.1803 	 87.5396 	 
H 	 -55.0392 	 37.7553 	 86.8071 	 
H 	 -56.07 	 37.852 	 88.1631 	 
C 	 -56.6106 	 36.1893 	 86.9796 	 
H 	 -56.7877 	 36.6728 	 86.0737 	 
H 	 -57.5142 	 36.1531 	 87.5344 	 
C 	 -56.1058 	 34.7534 	 86.814 	 
H 	 -55.7417 	 34.3466 	 87.6848 	 
H 	 -55.3756 	 34.747 	 85.9211 	 
H 	 -56.8878 	 34.0322 	 86.6567 	 
H 	 -58.5111 	 37.3203 	 93.0987 	 
H 	 -51.461 	 35.6675 	 89.2633 	 
