34

S 	 -7.89237 	 61.997 	 57.3793 	 
C 	 -6.47861 	 61.2784 	 58.1966 	 
C 	 -6.63493 	 59.9382 	 58.3474 	 
C 	 -7.91976 	 59.4819 	 57.8249 	 
C 	 -8.72506 	 60.4539 	 57.2046 	 
H 	 -8.31102 	 58.5203 	 58.0111 	 
C 	 -5.66321 	 59.0974 	 59.1912 	 
H 	 -5.98616 	 59.1253 	 60.2512 	 
H 	 -4.76659 	 59.6318 	 59.2545 	 
C 	 -5.46184 	 57.6654 	 58.592 	 
H 	 -4.87448 	 57.0385 	 59.2824 	 
H 	 -6.38707 	 57.1285 	 58.5175 	 
C 	 -4.76316 	 57.7192 	 57.1945 	 
H 	 -5.41496 	 58.1588 	 56.4936 	 
H 	 -3.83783 	 58.2809 	 57.2102 	 
H 	 -4.61072 	 56.7565 	 56.7667 	 
S 	 -10.3223 	 58.7538 	 55.7993 	 
C 	 -11.9384 	 59.2836 	 55.388 	 
C 	 -12.321 	 60.3142 	 56.2139 	 
C 	 -11.2732 	 60.9214 	 56.9591 	 
C 	 -10.0638 	 60.2161 	 56.7864 	 
H 	 -13.3666 	 60.742 	 56.1999 	 
C 	 -11.5259 	 62.0354 	 57.926 	 
H 	 -11.5455 	 62.9168 	 57.2593 	 
H 	 -10.5673 	 62.1703 	 58.5166 	 
C 	 -12.7359 	 61.8844 	 58.8715 	 
H 	 -13.6494 	 61.7556 	 58.3659 	 
H 	 -12.7289 	 62.719 	 59.5103 	 
C 	 -12.6474 	 60.6918 	 59.8284 	 
H 	 -13.0717 	 60.8759 	 60.9141 	 
H 	 -11.5849 	 60.3815 	 60.045 	 
H 	 -13.0607 	 59.8907 	 59.3687 	 
H 	 -5.67986 	 61.8155 	 58.5544 	 
H 	 -12.7139 	 58.7063 	 54.8791 	 
