34

S 	 28.8677 	 -0.729772 	 73.1873 	 
C 	 29.164 	 0.766554 	 74.1006 	 
C 	 29.6477 	 0.548506 	 75.3683 	 
C 	 29.8197 	 -0.838605 	 75.6014 	 
C 	 29.5058 	 -1.65476 	 74.5743 	 
H 	 30.1853 	 -1.19776 	 76.5535 	 
C 	 29.9046 	 1.59782 	 76.433 	 
H 	 29.2187 	 2.37655 	 76.2771 	 
H 	 30.9593 	 2.04068 	 76.1729 	 
C 	 29.9245 	 1.1666 	 77.9207 	 
H 	 28.9914 	 0.627479 	 78.1765 	 
H 	 30.7001 	 0.481711 	 78.0499 	 
C 	 30.0987 	 2.36437 	 78.7698 	 
H 	 31.0769 	 2.78285 	 78.4597 	 
H 	 29.3431 	 3.14356 	 78.4968 	 
H 	 30.1985 	 2.23936 	 79.8718 	 
S 	 28.1156 	 -3.85185 	 73.4957 	 
C 	 28.546 	 -5.44225 	 73.9428 	 
C 	 29.6226 	 -5.41118 	 74.7295 	 
C 	 30.0965 	 -4.14001 	 75.1016 	 
C 	 29.3679 	 -3.11918 	 74.5285 	 
H 	 30.0535 	 -6.30947 	 75.0689 	 
C 	 31.3584 	 -3.96435 	 75.9443 	 
H 	 31.5302 	 -4.85611 	 76.487 	 
H 	 31.0873 	 -3.30142 	 76.8456 	 
C 	 32.5496 	 -3.53553 	 75.1832 	 
H 	 33.3954 	 -3.43725 	 75.893 	 
H 	 32.3092 	 -2.58767 	 74.7262 	 
C 	 32.9092 	 -4.59807 	 74.0681 	 
H 	 33.8987 	 -4.37009 	 73.7214 	 
H 	 32.1227 	 -4.4568 	 73.2452 	 
H 	 32.7634 	 -5.56168 	 74.5632 	 
H 	 28.7925 	 1.79005 	 73.7587 	 
H 	 28.1493 	 -6.34522 	 73.5522 	 
