34

S 	 -74.7608 	 36.5611 	 121.603 	 
C 	 -73.7959 	 35.2506 	 121.078 	 
C 	 -72.3835 	 35.6107 	 120.938 	 
C 	 -72.2056 	 37.0104 	 121.226 	 
C 	 -73.4192 	 37.6528 	 121.487 	 
H 	 -71.2172 	 37.4438 	 121.26 	 
C 	 -71.3268 	 34.648 	 120.549 	 
H 	 -70.5844 	 35.0178 	 119.803 	 
H 	 -71.7937 	 33.8621 	 119.96 	 
C 	 -70.4752 	 34.1428 	 121.707 	 
H 	 -69.7162 	 33.5485 	 121.311 	 
H 	 -70.0685 	 34.9968 	 122.31 	 
C 	 -71.3349 	 33.2719 	 122.631 	 
H 	 -72.3954 	 33.4958 	 122.662 	 
H 	 -71.3345 	 32.2101 	 122.366 	 
H 	 -70.9524 	 33.3578 	 123.679 	 
S 	 -73.8526 	 39.6959 	 123.321 	 
C 	 -73.9994 	 41.3094 	 122.671 	 
C 	 -73.8758 	 41.3479 	 121.309 	 
C 	 -73.6371 	 40.0747 	 120.72 	 
C 	 -73.5948 	 39.086 	 121.655 	 
H 	 -73.9941 	 42.2901 	 120.783 	 
C 	 -73.3161 	 39.9163 	 119.224 	 
H 	 -74.1267 	 39.348 	 118.846 	 
H 	 -72.415 	 39.2304 	 119.129 	 
C 	 -73.1807 	 41.2162 	 118.394 	 
H 	 -72.1728 	 41.5793 	 118.581 	 
H 	 -73.89 	 42.0131 	 118.796 	 
C 	 -73.2622 	 40.7569 	 116.895 	 
H 	 -74.2334 	 40.2814 	 116.656 	 
H 	 -72.3169 	 40.2044 	 116.716 	 
H 	 -73.2361 	 41.6347 	 116.267 	 
H 	 -74.1095 	 34.248 	 120.807 	 
H 	 -74.1069 	 42.2106 	 123.193 	 
