34

S 	 -53.3678 	 12.9794 	 91.1131 	 
C 	 -53.2896 	 14.4535 	 92.0927 	 
C 	 -52.0519 	 15.085 	 92.0589 	 
C 	 -51.2121 	 14.4327 	 91.0955 	 
C 	 -51.8751 	 13.4337 	 90.3184 	 
H 	 -50.1841 	 14.6961 	 90.9086 	 
C 	 -51.5952 	 16.2354 	 93.0163 	 
H 	 -50.7268 	 15.8068 	 93.5443 	 
H 	 -52.4113 	 16.3547 	 93.8155 	 
C 	 -51.1779 	 17.4536 	 92.3336 	 
H 	 -50.2794 	 17.1744 	 91.7908 	 
H 	 -51.8286 	 17.6143 	 91.4474 	 
C 	 -50.988 	 18.7845 	 93.0016 	 
H 	 -51.901 	 19.2188 	 93.2052 	 
H 	 -50.5435 	 18.7707 	 93.9913 	 
H 	 -50.5124 	 19.4435 	 92.2872 	 
S 	 -50.9484 	 11.0034 	 89.4432 	 
C 	 -50.5366 	 10.7775 	 87.773 	 
C 	 -50.5371 	 12.0096 	 87.0746 	 
C 	 -50.9987 	 13.1193 	 87.8997 	 
C 	 -51.382 	 12.6883 	 89.1271 	 
H 	 -50.2457 	 12.087 	 85.9978 	 
C 	 -51.1393 	 14.4751 	 87.3306 	 
H 	 -50.3708 	 14.6231 	 86.5708 	 
H 	 -50.817 	 15.162 	 88.1782 	 
C 	 -52.5306 	 14.913 	 86.8457 	 
H 	 -52.5122 	 15.9777 	 86.7158 	 
H 	 -53.1697 	 14.7534 	 87.6796 	 
C 	 -52.9065 	 14.2246 	 85.5598 	 
H 	 -53.0623 	 13.2549 	 85.9057 	 
H 	 -52.0943 	 14.4434 	 84.8349 	 
H 	 -53.8095 	 14.6276 	 85.1569 	 
H 	 -53.9903 	 14.5821 	 92.9251 	 
H 	 -50.4054 	 9.78274 	 87.4612 	 
