34

S 	 28.144 	 2.63895 	 79.1181 	 
C 	 29.3891 	 3.67034 	 78.5877 	 
C 	 29.7123 	 3.48065 	 77.2669 	 
C 	 28.6809 	 2.65538 	 76.6398 	 
C 	 27.8282 	 2.05664 	 77.5604 	 
H 	 28.6539 	 2.45078 	 75.6299 	 
C 	 30.8079 	 4.17374 	 76.3952 	 
H 	 31.4219 	 3.41577 	 75.9471 	 
H 	 31.5 	 4.70181 	 77.0308 	 
C 	 30.3184 	 5.06288 	 75.3235 	 
H 	 31.0853 	 5.25928 	 74.6501 	 
H 	 29.5518 	 4.60385 	 74.7604 	 
C 	 29.7608 	 6.41566 	 75.8488 	 
H 	 29.0799 	 6.45134 	 76.7147 	 
H 	 30.6079 	 7.02897 	 76.2503 	 
H 	 29.1426 	 6.89099 	 75.0877 	 
S 	 26.4792 	 -0.273122 	 78.0398 	 
C 	 25.1273 	 -0.741119 	 76.9903 	 
C 	 24.7674 	 0.363924 	 76.2002 	 
C 	 25.6852 	 1.4316 	 76.2167 	 
C 	 26.6708 	 1.28125 	 77.2092 	 
H 	 23.8599 	 0.322564 	 75.6874 	 
C 	 25.476 	 2.68249 	 75.3186 	 
H 	 25.3553 	 2.2373 	 74.3563 	 
H 	 26.4224 	 3.26589 	 75.3238 	 
C 	 24.1701 	 3.55046 	 75.7087 	 
H 	 24.3532 	 3.98823 	 76.7083 	 
H 	 23.3013 	 2.97314 	 75.6344 	 
C 	 23.8353 	 4.81536 	 74.8959 	 
H 	 23.4148 	 4.64978 	 73.9268 	 
H 	 24.6251 	 5.57336 	 74.869 	 
H 	 23.0517 	 5.32697 	 75.3392 	 
H 	 29.9154 	 4.33947 	 79.2699 	 
H 	 24.525 	 -1.55248 	 77.2482 	 
