34

S 	 -37.1836 	 70.7757 	 106.016 	 
C 	 -36.7793 	 70.5197 	 104.307 	 
C 	 -35.691 	 71.2582 	 103.903 	 
C 	 -35.1602 	 71.9905 	 104.982 	 
C 	 -35.8542 	 71.8772 	 106.197 	 
H 	 -34.3165 	 72.5174 	 104.925 	 
C 	 -34.9219 	 71.1969 	 102.564 	 
H 	 -34.7963 	 72.206 	 102.147 	 
H 	 -35.345 	 70.851 	 101.66 	 
C 	 -33.427 	 70.7081 	 102.718 	 
H 	 -32.9936 	 71.3536 	 103.422 	 
H 	 -33.3384 	 69.7287 	 103.243 	 
C 	 -32.5967 	 70.7665 	 101.411 	 
H 	 -31.6463 	 70.2293 	 101.647 	 
H 	 -33.1274 	 70.1677 	 100.644 	 
H 	 -32.3972 	 71.8072 	 101.048 	 
S 	 -34.9607 	 71.5319 	 108.869 	 
C 	 -34.7615 	 73.0101 	 109.755 	 
C 	 -35.0321 	 74.1875 	 109.058 	 
C 	 -35.4196 	 73.8554 	 107.7 	 
C 	 -35.548 	 72.4983 	 107.451 	 
H 	 -34.841 	 75.1345 	 109.524 	 
C 	 -35.6387 	 74.9783 	 106.692 	 
H 	 -34.9232 	 74.7571 	 105.952 	 
H 	 -35.3928 	 75.98 	 107.234 	 
C 	 -37.0979 	 75.0713 	 106.169 	 
H 	 -37.6925 	 75.1576 	 107.093 	 
H 	 -37.3827 	 74.1474 	 105.562 	 
C 	 -37.4825 	 76.2733 	 105.253 	 
H 	 -36.8674 	 76.2645 	 104.373 	 
H 	 -37.3385 	 77.2528 	 105.705 	 
H 	 -38.5291 	 76.1721 	 105.047 	 
H 	 -37.2153 	 69.777 	 103.609 	 
H 	 -34.4458 	 73.0275 	 110.777 	 
