34

S 	 -22.8692 	 -8.48798 	 86.2755 	 
C 	 -23.2097 	 -9.83386 	 85.1496 	 
C 	 -22.1058 	 -10.1056 	 84.3454 	 
C 	 -21.0741 	 -9.15128 	 84.5299 	 
C 	 -21.2711 	 -8.24751 	 85.5493 	 
H 	 -20.0944 	 -9.18303 	 84.013 	 
C 	 -21.9265 	 -11.4002 	 83.5364 	 
H 	 -20.962 	 -11.3243 	 82.8831 	 
H 	 -22.6474 	 -11.4723 	 82.6351 	 
C 	 -21.8576 	 -12.6758 	 84.3476 	 
H 	 -22.7401 	 -12.7585 	 85.0206 	 
H 	 -21.7432 	 -13.4677 	 83.6601 	 
C 	 -20.6406 	 -12.6977 	 85.3826 	 
H 	 -19.6455 	 -12.3945 	 85.0145 	 
H 	 -20.8672 	 -12.2164 	 86.3354 	 
H 	 -20.5929 	 -13.6687 	 85.7549 	 
S 	 -20.3396 	 -6.63486 	 87.5701 	 
C 	 -19.2082 	 -5.37268 	 87.2564 	 
C 	 -18.786 	 -5.35231 	 85.9461 	 
C 	 -19.4234 	 -6.40051 	 85.2166 	 
C 	 -20.3652 	 -7.14332 	 85.9383 	 
H 	 -18.1304 	 -4.66185 	 85.5003 	 
C 	 -19.114 	 -6.63648 	 83.7469 	 
H 	 -19.1487 	 -5.648 	 83.2922 	 
H 	 -19.9021 	 -7.11434 	 83.1721 	 
C 	 -17.7651 	 -7.40254 	 83.5573 	 
H 	 -17.9086 	 -8.44912 	 83.9983 	 
H 	 -16.875 	 -6.89354 	 84.112 	 
C 	 -17.4738 	 -7.71351 	 82.0922 	 
H 	 -18.3846 	 -7.88777 	 81.5036 	 
H 	 -16.7476 	 -8.55195 	 81.8884 	 
H 	 -16.8726 	 -6.9077 	 81.6077 	 
H 	 -24.0352 	 -10.493 	 85.4069 	 
H 	 -18.8564 	 -4.73339 	 88.049 	 
