34

S 	 53.9546 	 20.7573 	 47.1377 	 
C 	 54.3432 	 22.4294 	 47.2539 	 
C 	 53.495 	 23.103 	 48.1274 	 
C 	 52.719 	 22.1607 	 48.9177 	 
C 	 52.8857 	 20.855 	 48.48 	 
H 	 52.0238 	 22.3977 	 49.7128 	 
C 	 53.5167 	 24.5616 	 48.2665 	 
H 	 54.3934 	 25.0703 	 47.9032 	 
H 	 53.5366 	 24.7454 	 49.3024 	 
C 	 52.341 	 25.1855 	 47.5865 	 
H 	 51.4679 	 24.696 	 47.9169 	 
H 	 52.2856 	 26.2675 	 47.9101 	 
C 	 52.2725 	 25.1514 	 46.0258 	 
H 	 51.3079 	 25.4548 	 45.6371 	 
H 	 53.039 	 25.7873 	 45.5906 	 
H 	 52.5487 	 24.1788 	 45.7179 	 
S 	 53.5123 	 18.3191 	 49.3397 	 
C 	 52.3276 	 17.3279 	 50.1774 	 
C 	 51.0907 	 17.9364 	 50.0499 	 
C 	 51.0981 	 19.2706 	 49.4992 	 
C 	 52.4197 	 19.621 	 49.1302 	 
H 	 50.2963 	 17.2999 	 50.3584 	 
C 	 49.8753 	 20.1427 	 49.3908 	 
H 	 49.8682 	 20.6732 	 48.4619 	 
H 	 49.9777 	 20.9631 	 50.1607 	 
C 	 48.4306 	 19.5201 	 49.5418 	 
H 	 48.2049 	 19.1669 	 50.5576 	 
H 	 48.4624 	 18.6292 	 49.0016 	 
C 	 47.2479 	 20.3871 	 49.1476 	 
H 	 46.2665 	 20.0173 	 49.1974 	 
H 	 47.3069 	 20.7722 	 48.0909 	 
H 	 47.131 	 21.1471 	 49.9652 	 
H 	 54.9985 	 22.9531 	 46.5704 	 
H 	 52.4404 	 16.3254 	 50.4777 	 
