34

S 	 -40.3782 	 57.5142 	 109.155 	 
C 	 -41.8309 	 57.5945 	 110.003 	 
C 	 -42.5555 	 56.4175 	 109.887 	 
C 	 -41.871 	 55.4142 	 109.147 	 
C 	 -40.5096 	 55.7615 	 109.036 	 
H 	 -42.2969 	 54.4529 	 108.96 	 
C 	 -43.9121 	 56.0949 	 110.485 	 
H 	 -44.1359 	 56.8822 	 111.191 	 
H 	 -43.7551 	 55.0891 	 110.953 	 
C 	 -45.0963 	 56.0406 	 109.486 	 
H 	 -45.1254 	 55.0346 	 109.031 	 
H 	 -46.0804 	 56.1031 	 109.956 	 
C 	 -45.107 	 57.1918 	 108.477 	 
H 	 -45.0741 	 58.1168 	 109.001 	 
H 	 -44.2191 	 57.2192 	 107.886 	 
H 	 -45.8739 	 57.1882 	 107.808 	 
S 	 -38.6538 	 55.6157 	 107.012 	 
C 	 -37.799 	 54.1009 	 106.773 	 
C 	 -38.0204 	 53.2316 	 107.807 	 
C 	 -38.8944 	 53.6835 	 108.794 	 
C 	 -39.4429 	 54.9441 	 108.441 	 
H 	 -37.4648 	 52.3217 	 107.748 	 
C 	 -39.4187 	 52.8153 	 109.934 	 
H 	 -40.4415 	 53.1391 	 110.275 	 
H 	 -38.8993 	 53.1195 	 110.778 	 
C 	 -39.546 	 51.2856 	 109.781 	 
H 	 -38.6005 	 50.8307 	 109.634 	 
H 	 -40.0383 	 51.1186 	 108.793 	 
C 	 -40.3611 	 50.5741 	 110.892 	 
H 	 -41.381 	 50.9104 	 110.806 	 
H 	 -39.9904 	 50.7088 	 111.882 	 
H 	 -40.3681 	 49.5475 	 110.706 	 
H 	 -42.1461 	 58.477 	 110.546 	 
H 	 -37.0816 	 53.8271 	 105.978 	 
