34

S 	 -20.939 	 36.081 	 35.55 	 
C 	 -21.391 	 36.5654 	 33.9347 	 
C 	 -21.1097 	 35.5117 	 33.0048 	 
C 	 -20.3529 	 34.4867 	 33.6891 	 
C 	 -20.1852 	 34.6482 	 35.0726 	 
H 	 -19.9436 	 33.5847 	 33.31 	 
C 	 -21.3654 	 35.3837 	 31.5188 	 
H 	 -22.4834 	 35.3089 	 31.3938 	 
H 	 -21.0973 	 34.3358 	 31.285 	 
C 	 -20.8494 	 36.4422 	 30.5774 	 
H 	 -21.0569 	 36.1534 	 29.5451 	 
H 	 -21.3561 	 37.3238 	 30.7934 	 
C 	 -19.3637 	 36.8716 	 30.771 	 
H 	 -18.5959 	 36.1376 	 30.8727 	 
H 	 -19.0359 	 37.505 	 29.9925 	 
H 	 -19.2302 	 37.4817 	 31.6224 	 
S 	 -20.3785 	 33.4797 	 37.6065 	 
C 	 -19.3261 	 32.2268 	 38.0357 	 
C 	 -18.4008 	 31.9755 	 37.0789 	 
C 	 -18.6605 	 32.7541 	 35.899 	 
C 	 -19.7012 	 33.6119 	 36.0092 	 
H 	 -17.6571 	 31.2137 	 37.1187 	 
C 	 -17.7254 	 32.6871 	 34.6108 	 
H 	 -16.7095 	 32.6534 	 34.9801 	 
H 	 -17.8092 	 33.6282 	 34.1585 	 
C 	 -17.9949 	 31.6265 	 33.523 	 
H 	 -17.4388 	 31.7032 	 32.6248 	 
H 	 -19.0724 	 31.6133 	 33.3728 	 
C 	 -17.5795 	 30.2284 	 33.9569 	 
H 	 -17.9684 	 29.6118 	 33.1403 	 
H 	 -18.0851 	 29.9823 	 34.8879 	 
H 	 -16.4831 	 30.1087 	 33.9496 	 
H 	 -21.7563 	 37.516 	 33.6923 	 
H 	 -19.2955 	 31.8143 	 39.0429 	 
