34

S 	 -103.104 	 58.0333 	 123.089 	 
C 	 -103.471 	 56.3688 	 122.649 	 
C 	 -102.482 	 55.5034 	 123.043 	 
C 	 -101.453 	 56.1436 	 123.779 	 
C 	 -101.684 	 57.5031 	 123.93 	 
H 	 -100.564 	 55.7468 	 124.189 	 
C 	 -102.226 	 54.049 	 122.594 	 
H 	 -101.174 	 53.7822 	 122.553 	 
H 	 -102.617 	 54.1312 	 121.624 	 
C 	 -102.96 	 52.9268 	 123.308 	 
H 	 -102.831 	 52.8384 	 124.375 	 
H 	 -103.952 	 53.3455 	 123.185 	 
C 	 -102.874 	 51.5487 	 122.548 	 
H 	 -103.422 	 51.7287 	 121.602 	 
H 	 -101.805 	 51.2224 	 122.368 	 
H 	 -103.301 	 50.7473 	 123.175 	 
S 	 -101.653 	 59.6248 	 125.746 	 
C 	 -100.2 	 60.5131 	 126.063 	 
C 	 -99.1832 	 60.0824 	 125.296 	 
C 	 -99.5288 	 58.8931 	 124.535 	 
C 	 -100.857 	 58.5537 	 124.586 	 
H 	 -98.1766 	 60.524 	 125.352 	 
C 	 -98.4669 	 58.1901 	 123.756 	 
H 	 -97.9243 	 58.9897 	 123.231 	 
H 	 -98.8478 	 57.6737 	 122.915 	 
C 	 -97.6109 	 57.3598 	 124.635 	 
H 	 -98.2847 	 56.7796 	 125.239 	 
H 	 -97.1259 	 57.9057 	 125.44 	 
C 	 -96.5877 	 56.5213 	 123.819 	 
H 	 -97.1367 	 55.7926 	 123.21 	 
H 	 -95.8925 	 55.8996 	 124.399 	 
H 	 -96.0398 	 57.2005 	 123.072 	 
H 	 -104.241 	 56.0291 	 121.935 	 
H 	 -100.128 	 61.4849 	 126.553 	 
