34

S 	 -8.83311 	 75.3207 	 48.6041 	 
C 	 -7.98785 	 76.7671 	 48.9046 	 
C 	 -6.8908 	 76.9456 	 48.0669 	 
C 	 -6.73731 	 75.8366 	 47.1953 	 
C 	 -7.70513 	 74.8824 	 47.4145 	 
H 	 -5.83768 	 75.5981 	 46.6005 	 
C 	 -5.86326 	 78.0453 	 48.2405 	 
H 	 -6.15149 	 78.997 	 47.6947 	 
H 	 -4.8932 	 77.7409 	 47.8833 	 
C 	 -5.69611 	 78.4672 	 49.7145 	 
H 	 -6.56773 	 79.0013 	 50.0609 	 
H 	 -5.62782 	 77.5831 	 50.3736 	 
C 	 -4.53234 	 79.4024 	 49.7949 	 
H 	 -4.73242 	 80.1822 	 49.1274 	 
H 	 -4.45329 	 79.7806 	 50.7807 	 
H 	 -3.59538 	 78.9346 	 49.4835 	 
S 	 -7.97809 	 72.1838 	 47.8639 	 
C 	 -7.55419 	 71.0437 	 46.5839 	 
C 	 -7.27465 	 71.7353 	 45.4561 	 
C 	 -7.46967 	 73.145 	 45.5174 	 
C 	 -7.63849 	 73.5244 	 46.8744 	 
H 	 -6.96956 	 71.1743 	 44.541 	 
C 	 -7.07674 	 74.0789 	 44.3083 	 
H 	 -6.11188 	 73.8325 	 44.054 	 
H 	 -6.99204 	 75.1135 	 44.6556 	 
C 	 -7.80146 	 73.9499 	 42.9934 	 
H 	 -8.78453 	 74.3676 	 43.1851 	 
H 	 -7.97636 	 72.9404 	 42.6898 	 
C 	 -7.06882 	 74.603 	 41.8128 	 
H 	 -7.6793 	 74.5773 	 40.9348 	 
H 	 -6.08202 	 74.1489 	 41.5684 	 
H 	 -6.94757 	 75.6707 	 42.122 	 
H 	 -8.41727 	 77.4816 	 49.5882 	 
H 	 -7.54284 	 69.9853 	 46.6652 	 
