34

S 	 -41.7304 	 33.2138 	 81.2348 	 
C 	 -41.6403 	 34.0906 	 79.704 	 
C 	 -40.6968 	 33.5631 	 78.869 	 
C 	 -40.0316 	 32.3925 	 79.4178 	 
C 	 -40.4468 	 32.0473 	 80.6846 	 
H 	 -39.3151 	 31.7867 	 78.9358 	 
C 	 -40.4583 	 34.1359 	 77.476 	 
H 	 -39.4224 	 34.486 	 77.518 	 
H 	 -40.9251 	 35.1073 	 77.3963 	 
C 	 -40.7404 	 33.2137 	 76.3194 	 
H 	 -40.2633 	 32.2781 	 76.5613 	 
H 	 -41.7797 	 32.9586 	 76.2853 	 
C 	 -40.3284 	 33.7983 	 75.0092 	 
H 	 -40.4536 	 33.0247 	 74.3065 	 
H 	 -40.9704 	 34.6295 	 74.7841 	 
H 	 -39.307 	 34.1684 	 75.0253 	 
S 	 -39.1615 	 31.2152 	 83.0531 	 
C 	 -39.0859 	 29.4792 	 83.3733 	 
C 	 -39.8182 	 28.7847 	 82.4308 	 
C 	 -40.3809 	 29.5968 	 81.3867 	 
C 	 -40.0734 	 30.9026 	 81.5321 	 
H 	 -39.8729 	 27.7158 	 82.4907 	 
C 	 -41.2503 	 28.9868 	 80.32 	 
H 	 -41.4542 	 29.7835 	 79.5469 	 
H 	 -42.2299 	 28.7122 	 80.6712 	 
C 	 -40.6794 	 27.7173 	 79.6397 	 
H 	 -41.4309 	 27.2953 	 78.9341 	 
H 	 -40.613 	 26.9468 	 80.4104 	 
C 	 -39.3621 	 27.9999 	 78.9346 	 
H 	 -38.8921 	 28.7899 	 79.5673 	 
H 	 -39.6301 	 28.3816 	 77.9197 	 
H 	 -38.7166 	 27.1582 	 78.8063 	 
H 	 -42.3559 	 34.8379 	 79.3236 	 
H 	 -38.7248 	 28.9927 	 84.2116 	 
