34

S 	 59.0433 	 -4.49612 	 89.1892 	 
C 	 57.3954 	 -5.12294 	 89.0509 	 
C 	 56.7564 	 -4.68119 	 87.8835 	 
C 	 57.5735 	 -3.79243 	 87.1211 	 
C 	 58.8505 	 -3.61909 	 87.6531 	 
H 	 57.2717 	 -3.30082 	 86.2053 	 
C 	 55.3368 	 -4.66864 	 87.5248 	 
H 	 55.1016 	 -5.68378 	 87.7302 	 
H 	 55.3213 	 -4.49196 	 86.4045 	 
C 	 54.3475 	 -3.67969 	 88.2204 	 
H 	 53.4283 	 -3.78171 	 87.6304 	 
H 	 54.0125 	 -4.00533 	 89.2504 	 
C 	 54.831 	 -2.22223 	 88.1545 	 
H 	 54.2371 	 -1.50959 	 88.6456 	 
H 	 55.8731 	 -2.16656 	 88.4559 	 
H 	 54.8023 	 -1.94702 	 87.0819 	 
S 	 60.5497 	 -2.73565 	 85.4756 	 
C 	 61.5303 	 -1.29907 	 85.713 	 
C 	 61.3813 	 -0.83789 	 87.0043 	 
C 	 60.4825 	 -1.63133 	 87.8252 	 
C 	 59.9018 	 -2.69424 	 87.1704 	 
H 	 62.025 	 -0.0760932 	 87.2971 	 
C 	 60.0688 	 -1.12509 	 89.2082 	 
H 	 60.9672 	 -0.658196 	 89.5587 	 
H 	 60.0459 	 -1.98053 	 89.9096 	 
C 	 58.8237 	 -0.201459 	 89.2797 	 
H 	 57.9458 	 -0.674535 	 88.8491 	 
H 	 58.9755 	 0.596891 	 88.5011 	 
C 	 58.5469 	 0.445962 	 90.6432 	 
H 	 57.519 	 0.790659 	 90.507 	 
H 	 59.1249 	 1.27113 	 91.035 	 
H 	 58.6727 	 -0.241041 	 91.5017 	 
H 	 56.9679 	 -5.70718 	 89.8513 	 
H 	 62.2776 	 -0.982209 	 85.0524 	 
