34

S 	 -114.474 	 51.4595 	 132.215 	 
C 	 -113.729 	 52.9852 	 132.832 	 
C 	 -113.201 	 52.706 	 134.07 	 
C 	 -113.189 	 51.3311 	 134.472 	 
C 	 -113.984 	 50.4877 	 133.647 	 
H 	 -112.914 	 50.7962 	 135.403 	 
C 	 -112.494 	 53.7613 	 134.956 	 
H 	 -112.795 	 54.7446 	 134.593 	 
H 	 -111.405 	 53.6177 	 134.824 	 
C 	 -112.782 	 53.7559 	 136.448 	 
H 	 -113.84 	 53.8768 	 136.641 	 
H 	 -112.515 	 52.7717 	 136.886 	 
C 	 -111.911 	 54.8125 	 137.15 	 
H 	 -112.604 	 55.6549 	 137.311 	 
H 	 -111.628 	 54.4013 	 138.072 	 
H 	 -111.038 	 55.1427 	 136.616 	 
S 	 -114.246 	 48.1608 	 132.35 	 
C 	 -114.365 	 46.632 	 133.159 	 
C 	 -114.439 	 46.8128 	 134.554 	 
C 	 -114.367 	 48.2103 	 134.923 	 
C 	 -114.143 	 49.0575 	 133.829 	 
H 	 -114.64 	 45.949 	 135.128 	 
C 	 -114.527 	 48.7608 	 136.386 	 
H 	 -114.811 	 49.8123 	 136.26 	 
H 	 -113.483 	 48.6591 	 136.708 	 
C 	 -115.46 	 48.0045 	 137.366 	 
H 	 -115.337 	 46.8996 	 137.387 	 
H 	 -116.489 	 48.1904 	 137.011 	 
C 	 -115.514 	 48.5791 	 138.784 	 
H 	 -114.621 	 48.3425 	 139.399 	 
H 	 -116.367 	 48.1259 	 139.341 	 
H 	 -115.684 	 49.6419 	 138.75 	 
H 	 -113.681 	 53.9554 	 132.28 	 
H 	 -114.393 	 45.7074 	 132.646 	 
