34

S 	 -10.3278 	 58.7363 	 60.8609 	 
C 	 -9.33726 	 57.3099 	 60.7532 	 
C 	 -10.1348 	 56.1558 	 60.9099 	 
C 	 -11.4771 	 56.4703 	 61.1906 	 
C 	 -11.6649 	 57.8137 	 61.5061 	 
H 	 -12.2915 	 55.7837 	 61.471 	 
C 	 -9.68401 	 54.7393 	 60.6152 	 
H 	 -8.94336 	 54.8682 	 59.8111 	 
H 	 -10.4809 	 54.2189 	 60.1365 	 
C 	 -9.10192 	 53.9224 	 61.8147 	 
H 	 -8.92773 	 52.9284 	 61.3967 	 
H 	 -8.15143 	 54.3272 	 62.0514 	 
C 	 -9.98435 	 53.8477 	 63.0005 	 
H 	 -10.4699 	 54.7806 	 63.3424 	 
H 	 -10.7718 	 53.1161 	 62.7524 	 
H 	 -9.4812 	 53.4817 	 63.8602 	 
S 	 -12.7518 	 59.4696 	 63.48 	 
C 	 -14.5005 	 59.3565 	 63.7997 	 
C 	 -15.1533 	 58.7554 	 62.7572 	 
C 	 -14.2836 	 58.2976 	 61.7178 	 
C 	 -12.923 	 58.4508 	 62.0079 	 
H 	 -16.2492 	 58.638 	 62.7647 	 
C 	 -14.9135 	 57.501 	 60.5037 	 
H 	 -15.233 	 56.4867 	 60.7661 	 
H 	 -14.0267 	 57.4593 	 59.8791 	 
C 	 -16.0266 	 58.2643 	 59.7445 	 
H 	 -16.8504 	 58.2168 	 60.3787 	 
H 	 -16.2918 	 57.7265 	 58.8643 	 
C 	 -15.7785 	 59.726 	 59.3161 	 
H 	 -16.7355 	 60.2465 	 59.353 	 
H 	 -15.3787 	 59.9308 	 58.2796 	 
H 	 -15.1271 	 60.1953 	 60.0403 	 
H 	 -8.31061 	 57.2586 	 60.402 	 
H 	 -15.0936 	 59.8973 	 64.554 	 
