34

S 	 50.0311 	 25.9147 	 42.1203 	 
C 	 51.6206 	 25.2284 	 41.8524 	 
C 	 52.4294 	 25.5789 	 42.8649 	 
C 	 51.8127 	 26.4927 	 43.7324 	 
C 	 50.5067 	 26.936 	 43.4396 	 
H 	 52.3401 	 27.01 	 44.4943 	 
C 	 53.8326 	 25.0208 	 43.135 	 
H 	 54.0896 	 24.2731 	 42.3365 	 
H 	 53.603 	 24.4042 	 44.0214 	 
C 	 54.9354 	 26.0419 	 43.458 	 
H 	 54.8721 	 26.9383 	 42.832 	 
H 	 54.786 	 26.5803 	 44.4207 	 
C 	 56.3205 	 25.4366 	 43.234 	 
H 	 57.0012 	 26.3174 	 43.4018 	 
H 	 56.5574 	 24.5701 	 43.8721 	 
H 	 56.4848 	 25.0078 	 42.1896 	 
S 	 49.5931 	 29.4901 	 43.2798 	 
C 	 48.6486 	 30.0915 	 44.5568 	 
C 	 48.6515 	 29.2787 	 45.6378 	 
C 	 49.249 	 27.9921 	 45.356 	 
C 	 49.7805 	 27.9865 	 44.0904 	 
H 	 48.1878 	 29.6779 	 46.4904 	 
C 	 49.352 	 26.9007 	 46.3682 	 
H 	 49.4142 	 25.9903 	 45.7934 	 
H 	 48.358 	 26.8536 	 46.8102 	 
C 	 50.5561 	 27.2543 	 47.29 	 
H 	 50.532 	 28.3071 	 47.5811 	 
H 	 51.5118 	 27.1807 	 46.7797 	 
C 	 50.5658 	 26.4371 	 48.6299 	 
H 	 50.2687 	 25.4191 	 48.5126 	 
H 	 49.8116 	 26.8739 	 49.2547 	 
H 	 51.5288 	 26.5562 	 49.1778 	 
H 	 51.9155 	 24.5069 	 41.1474 	 
H 	 48.1205 	 31.0733 	 44.5971 	 
