34

S 	 39.9045 	 27.0732 	 82.395 	 
C 	 39.2573 	 28.0158 	 83.6697 	 
C 	 40.2788 	 28.2321 	 84.581 	 
C 	 41.445 	 27.4247 	 84.3487 	 
C 	 41.4463 	 26.8191 	 83.1038 	 
H 	 42.3531 	 27.2668 	 84.9683 	 
C 	 40.1867 	 29.0049 	 85.8821 	 
H 	 40.6209 	 28.3261 	 86.6718 	 
H 	 39.1812 	 29.1488 	 86.1278 	 
C 	 40.9785 	 30.3385 	 85.7241 	 
H 	 41.8325 	 30.0704 	 85.0891 	 
H 	 40.3295 	 31.1147 	 85.285 	 
C 	 41.5544 	 30.8863 	 87.1333 	 
H 	 42.464 	 31.507 	 87.1189 	 
H 	 40.7355 	 31.5152 	 87.5883 	 
H 	 41.7649 	 30.0421 	 87.8631 	 
S 	 42.8721 	 26.5472 	 80.685 	 
C 	 44.3699 	 25.7452 	 80.759 	 
C 	 44.5228 	 24.9454 	 81.8863 	 
C 	 43.5164 	 25.2763 	 82.8416 	 
C 	 42.5273 	 26.1415 	 82.3642 	 
H 	 45.4279 	 24.2345 	 81.9335 	 
C 	 43.5838 	 24.7134 	 84.195 	 
H 	 43.9023 	 25.5057 	 84.8956 	 
H 	 44.4602 	 24.128 	 84.1198 	 
C 	 42.4756 	 23.8213 	 84.6091 	 
H 	 42.7186 	 22.825 	 84.1656 	 
H 	 41.4887 	 24.1372 	 84.2359 	 
C 	 42.4417 	 23.7389 	 86.1779 	 
H 	 41.4698 	 23.5061 	 86.5471 	 
H 	 42.7077 	 24.6409 	 86.6432 	 
H 	 43.0839 	 22.8984 	 86.4837 	 
H 	 38.2642 	 28.5569 	 83.6352 	 
H 	 45.1145 	 25.7463 	 79.9185 	 
