34

S 	 40.3961 	 28.7552 	 50.7037 	 
C 	 41.7553 	 29.3323 	 51.5377 	 
C 	 41.4287 	 29.8624 	 52.7701 	 
C 	 40.0492 	 30.0194 	 52.8507 	 
C 	 39.3673 	 29.201 	 51.9671 	 
H 	 39.4962 	 30.4566 	 53.6618 	 
C 	 42.379 	 30.3994 	 53.7159 	 
H 	 43.1993 	 29.6972 	 53.6391 	 
H 	 41.859 	 30.4641 	 54.6597 	 
C 	 43.0108 	 31.7789 	 53.4022 	 
H 	 42.2899 	 32.5682 	 53.1511 	 
H 	 43.4829 	 32.1142 	 54.3402 	 
C 	 44.152 	 31.7815 	 52.3328 	 
H 	 43.7764 	 31.3653 	 51.4385 	 
H 	 44.6008 	 32.8123 	 52.1597 	 
H 	 45.002 	 31.2617 	 52.5921 	 
S 	 37.3069 	 27.7203 	 53.1721 	 
C 	 35.7944 	 27.6222 	 52.3407 	 
C 	 35.6762 	 28.4617 	 51.2219 	 
C 	 36.8838 	 29.1657 	 51.1261 	 
C 	 37.8941 	 28.9354 	 52.0766 	 
H 	 34.8705 	 28.5316 	 50.5215 	 
C 	 37.1253 	 29.8944 	 49.8032 	 
H 	 36.453 	 29.5644 	 49.0523 	 
H 	 38.1299 	 29.6239 	 49.3731 	 
C 	 36.9975 	 31.4212 	 49.9511 	 
H 	 37.6673 	 31.7352 	 50.724 	 
H 	 35.9594 	 31.6524 	 50.205 	 
C 	 37.3283 	 32.1082 	 48.6647 	 
H 	 37.9593 	 31.6924 	 47.817 	 
H 	 37.6598 	 33.1964 	 48.8955 	 
H 	 36.3918 	 32.176 	 48.1154 	 
H 	 42.8045 	 29.3102 	 51.2046 	 
H 	 35.0354 	 26.8601 	 52.52 	 
