34

S 	 32.7767 	 12.1096 	 69.7997 	 
C 	 31.2954 	 12.9286 	 69.537 	 
C 	 30.291 	 12.0348 	 69.0737 	 
C 	 30.7453 	 10.695 	 68.8722 	 
C 	 32.0551 	 10.6117 	 69.3312 	 
H 	 30.0335 	 9.95323 	 68.5201 	 
C 	 28.8495 	 12.4501 	 68.8009 	 
H 	 28.6361 	 13.2503 	 69.6245 	 
H 	 28.2524 	 11.5831 	 69.0332 	 
C 	 28.5532 	 12.8383 	 67.3963 	 
H 	 29.0774 	 13.7442 	 67.1184 	 
H 	 28.7864 	 12.0039 	 66.7293 	 
C 	 27.0437 	 13.1469 	 67.2376 	 
H 	 26.797 	 13.2507 	 66.1426 	 
H 	 26.4521 	 12.3033 	 67.7214 	 
H 	 26.8026 	 13.9623 	 67.8464 	 
S 	 34.6983 	 9.82118 	 69.148 	 
C 	 35.1301 	 8.11921 	 69.2627 	 
C 	 34.0064 	 7.36651 	 69.3365 	 
C 	 32.7659 	 8.10823 	 69.3914 	 
C 	 32.9886 	 9.48484 	 69.2233 	 
H 	 34.247 	 6.33006 	 69.3894 	 
C 	 31.3973 	 7.40252 	 69.4054 	 
H 	 30.5953 	 8.1235 	 69.5659 	 
H 	 31.392 	 6.72645 	 70.2131 	 
C 	 31.1069 	 6.52978 	 68.194 	 
H 	 31.8466 	 5.70966 	 68.005 	 
H 	 31.1692 	 7.03884 	 67.2675 	 
C 	 29.6736 	 5.85364 	 68.1703 	 
H 	 29.6778 	 4.87706 	 68.7395 	 
H 	 29.3012 	 5.64578 	 67.1699 	 
H 	 28.851 	 6.29733 	 68.7131 	 
H 	 31.3072 	 13.985 	 69.7133 	 
H 	 36.1337 	 7.68908 	 69.4037 	 
