34

S 	 -25.0502 	 57.5993 	 109.199 	 
C 	 -24.2191 	 58.7068 	 108.116 	 
C 	 -25.0772 	 59.6603 	 107.533 	 
C 	 -26.3941 	 59.4911 	 108.063 	 
C 	 -26.512 	 58.415 	 108.899 	 
H 	 -27.262 	 60.187 	 107.867 	 
C 	 -24.7658 	 60.8122 	 106.628 	 
H 	 -23.6846 	 60.9665 	 106.433 	 
H 	 -25.1209 	 61.7192 	 107.145 	 
C 	 -25.3974 	 60.8379 	 105.198 	 
H 	 -26.4521 	 60.6763 	 105.123 	 
H 	 -25.2813 	 61.8421 	 104.878 	 
C 	 -24.6321 	 59.7423 	 104.337 	 
H 	 -25.0483 	 59.7675 	 103.388 	 
H 	 -23.5894 	 59.9622 	 104.285 	 
H 	 -24.803 	 58.6674 	 104.557 	 
S 	 -28.1162 	 56.1458 	 108.964 	 
C 	 -29.6037 	 56.152 	 109.898 	 
C 	 -29.7403 	 57.3744 	 110.574 	 
C 	 -28.7243 	 58.3319 	 110.261 	 
C 	 -27.7171 	 57.8213 	 109.438 	 
H 	 -30.5516 	 57.3818 	 111.318 	 
C 	 -28.8488 	 59.7845 	 110.721 	 
H 	 -27.925 	 60.2673 	 110.38 	 
H 	 -28.9387 	 59.8988 	 111.815 	 
C 	 -30.0867 	 60.5202 	 110.174 	 
H 	 -30.2673 	 61.5235 	 110.617 	 
H 	 -31.001 	 59.9111 	 110.337 	 
C 	 -29.9746 	 60.7157 	 108.623 	 
H 	 -28.9693 	 61.1072 	 108.383 	 
H 	 -30.7476 	 61.2931 	 108.092 	 
H 	 -30.0837 	 59.7209 	 108.119 	 
H 	 -23.1673 	 58.7459 	 108.002 	 
H 	 -30.222 	 55.2861 	 110.032 	 
