34

S 	 1.00455 	 13.0386 	 85.2176 	 
C 	 0.69914 	 13.1098 	 83.4634 	 
C 	 1.83936 	 12.8929 	 82.7621 	 
C 	 2.90804 	 12.4035 	 83.5523 	 
C 	 2.59998 	 12.3569 	 84.9075 	 
H 	 3.92542 	 12.1332 	 83.2016 	 
C 	 1.91829 	 13.0196 	 81.2791 	 
H 	 2.89299 	 12.8619 	 80.873 	 
H 	 1.63695 	 14.0443 	 80.9885 	 
C 	 0.941444 	 12.0837 	 80.5327 	 
H 	 1.08964 	 11.0616 	 80.7667 	 
H 	 -0.0165985 	 12.3639 	 80.8301 	 
C 	 1.0989 	 12.2064 	 79.0473 	 
H 	 0.558112 	 11.4511 	 78.4761 	 
H 	 0.620616 	 13.0701 	 78.5802 	 
H 	 2.11484 	 11.9832 	 78.7483 	 
S 	 3.72576 	 13.1819 	 87.4033 	 
C 	 5.17876 	 12.3634 	 87.9428 	 
C 	 5.61577 	 11.4809 	 87.0266 	 
C 	 4.79567 	 11.3181 	 85.8771 	 
C 	 3.63925 	 12.0948 	 85.9376 	 
H 	 6.52393 	 11.0636 	 87.0545 	 
C 	 5.17595 	 10.4001 	 84.751 	 
H 	 4.29327 	 10.3134 	 84.1017 	 
H 	 5.21331 	 9.37751 	 85.072 	 
C 	 6.38455 	 10.7358 	 83.9002 	 
H 	 7.22895 	 10.7501 	 84.5883 	 
H 	 6.38594 	 11.7457 	 83.4383 	 
C 	 6.63114 	 9.78333 	 82.6776 	 
H 	 7.46744 	 10.1819 	 81.9705 	 
H 	 5.71842 	 9.56714 	 82.0668 	 
H 	 7.07759 	 8.88052 	 83.0861 	 
H 	 -0.21831 	 13.2183 	 82.9509 	 
H 	 5.89541 	 12.6511 	 88.7107 	 
