34

S 	 25.6403 	 0.115701 	 82.2469 	 
C 	 26.5276 	 1.56408 	 82.1139 	 
C 	 25.7286 	 2.70963 	 82.1085 	 
C 	 24.3616 	 2.34479 	 82.2871 	 
C 	 24.1594 	 0.981458 	 82.1624 	 
H 	 23.5779 	 3.05063 	 82.5771 	 
C 	 26.2042 	 4.13592 	 82.0857 	 
H 	 25.4101 	 4.85721 	 81.9626 	 
H 	 26.7465 	 4.18682 	 81.1617 	 
C 	 27.1 	 4.58156 	 83.2343 	 
H 	 26.4274 	 4.43196 	 84.0675 	 
H 	 27.9858 	 3.97344 	 83.405 	 
C 	 27.6146 	 6.02794 	 83.0925 	 
H 	 26.8494 	 6.71102 	 82.9019 	 
H 	 28.2712 	 6.31407 	 83.9439 	 
H 	 28.1853 	 5.99941 	 82.17 	 
S 	 22.6641 	 -0.666451 	 83.8493 	 
C 	 20.9434 	 -0.833146 	 83.6037 	 
C 	 20.4965 	 -0.0227027 	 82.6093 	 
C 	 21.5888 	 0.618743 	 81.9176 	 
C 	 22.8458 	 0.38742 	 82.48 	 
H 	 19.4589 	 0.0896444 	 82.3316 	 
C 	 21.3126 	 1.32778 	 80.5691 	 
H 	 20.6682 	 0.624848 	 80.0256 	 
H 	 22.1343 	 1.32921 	 79.9084 	 
C 	 20.6707 	 2.72951 	 80.7292 	 
H 	 21.3554 	 3.45403 	 81.231 	 
H 	 19.842 	 2.72209 	 81.4526 	 
C 	 20.375 	 3.32087 	 79.3282 	 
H 	 21.2273 	 3.43217 	 78.7376 	 
H 	 19.9557 	 4.32744 	 79.5277 	 
H 	 19.6082 	 2.73732 	 78.7982 	 
H 	 27.5705 	 1.65352 	 81.9015 	 
H 	 20.3534 	 -1.37133 	 84.2489 	 
