34

S 	 6.67437 	 24.8446 	 66.8806 	 
C 	 6.24982 	 24.4358 	 65.1654 	 
C 	 6.57226 	 25.4721 	 64.3471 	 
C 	 7.24054 	 26.5496 	 65.043 	 
C 	 7.19548 	 26.4959 	 66.4347 	 
H 	 7.71214 	 27.481 	 64.5234 	 
C 	 6.55474 	 25.4752 	 62.8724 	 
H 	 5.87692 	 26.2121 	 62.5507 	 
H 	 6.06348 	 24.5431 	 62.5478 	 
C 	 7.92503 	 25.53 	 62.236 	 
H 	 7.82621 	 25.5322 	 61.1176 	 
H 	 8.48015 	 26.4154 	 62.5148 	 
C 	 8.84579 	 24.311 	 62.441 	 
H 	 8.4541 	 23.4554 	 61.9106 	 
H 	 9.80497 	 24.5264 	 61.9149 	 
H 	 9.13691 	 24.1504 	 63.5162 	 
S 	 9.01187 	 26.6598 	 68.4442 	 
C 	 9.29536 	 28.2014 	 69.269 	 
C 	 8.59208 	 29.2109 	 68.7361 	 
C 	 7.7774 	 28.7565 	 67.6108 	 
C 	 7.78085 	 27.3742 	 67.439 	 
H 	 8.65025 	 30.2444 	 69.0647 	 
C 	 7.00896 	 29.687 	 66.7559 	 
H 	 6.46753 	 29.1133 	 65.9505 	 
H 	 7.75928 	 30.4027 	 66.2744 	 
C 	 5.96975 	 30.5513 	 67.5369 	 
H 	 6.48756 	 31.1996 	 68.178 	 
H 	 5.307 	 29.8587 	 68.0667 	 
C 	 5.0882 	 31.4638 	 66.6929 	 
H 	 4.75241 	 32.3265 	 67.2739 	 
H 	 4.16689 	 30.9319 	 66.3088 	 
H 	 5.65743 	 31.8711 	 65.8327 	 
H 	 5.9379 	 23.4785 	 64.7558 	 
H 	 9.96992 	 28.2253 	 70.0819 	 
