34

S 	 38.5018 	 17.0406 	 76.0349 	 
C 	 36.9038 	 16.651 	 75.5201 	 
C 	 35.8959 	 16.9893 	 76.4452 	 
C 	 36.4388 	 17.718 	 77.5592 	 
C 	 37.8639 	 17.7826 	 77.5366 	 
H 	 35.8859 	 18.045 	 78.4267 	 
C 	 34.4474 	 16.6311 	 76.3421 	 
H 	 34.3998 	 15.594 	 75.8732 	 
H 	 34.0128 	 17.3765 	 75.6373 	 
C 	 33.576 	 16.6223 	 77.6656 	 
H 	 34.2108 	 16.2156 	 78.4301 	 
H 	 33.3385 	 17.6458 	 77.9587 	 
C 	 32.2088 	 15.92 	 77.5079 	 
H 	 31.7989 	 16.3743 	 76.5889 	 
H 	 32.3723 	 14.8504 	 77.4711 	 
H 	 31.6414 	 16.196 	 78.4067 	 
S 	 40.3319 	 19.0077 	 77.8992 	 
C 	 40.8632 	 19.5361 	 79.509 	 
C 	 39.7937 	 19.4023 	 80.3664 	 
C 	 38.6254 	 18.8664 	 79.8071 	 
C 	 38.7634 	 18.4832 	 78.4903 	 
H 	 39.9759 	 19.7319 	 81.3349 	 
C 	 37.4149 	 18.6305 	 80.6604 	 
H 	 37.7624 	 18.6208 	 81.6916 	 
H 	 36.9259 	 17.6563 	 80.5411 	 
C 	 36.4094 	 19.8014 	 80.6393 	 
H 	 36.1412 	 20.1074 	 79.6313 	 
H 	 36.6661 	 20.7148 	 81.1461 	 
C 	 35.1068 	 19.5012 	 81.3833 	 
H 	 34.8093 	 18.4594 	 81.2123 	 
H 	 34.2784 	 20.1149 	 80.9665 	 
H 	 35.2169 	 19.5896 	 82.4314 	 
H 	 36.5605 	 16.226 	 74.5811 	 
H 	 41.8102 	 19.7832 	 79.9228 	 
