34

S 	 2.8187 	 -13.3198 	 76.3366 	 
C 	 3.45322 	 -13.742 	 74.8101 	 
C 	 2.58018 	 -13.4676 	 73.7452 	 
C 	 1.31252 	 -12.9669 	 74.2231 	 
C 	 1.28624 	 -12.9527 	 75.6246 	 
H 	 0.362574 	 -12.7845 	 73.6828 	 
C 	 2.90473 	 -13.7415 	 72.3326 	 
H 	 3.30682 	 -14.7585 	 72.1462 	 
H 	 3.78374 	 -13.1031 	 72.0095 	 
C 	 1.70928 	 -13.4874 	 71.4009 	 
H 	 0.809897 	 -14.0613 	 71.6196 	 
H 	 1.40195 	 -12.4714 	 71.5655 	 
C 	 2.12449 	 -13.4953 	 69.8851 	 
H 	 2.38441 	 -14.4935 	 69.473 	 
H 	 1.55984 	 -12.933 	 69.1672 	 
H 	 3.00156 	 -12.8047 	 69.6837 	 
S 	 -1.00572 	 -13.8694 	 76.5437 	 
C 	 -1.81405 	 -12.8907 	 77.7595 	 
C 	 -1.22361 	 -11.6687 	 77.9347 	 
C 	 -0.000874064 	 -11.5423 	 77.2604 	 
C 	 0.159269 	 -12.5912 	 76.4468 	 
H 	 -1.76545 	 -11.0525 	 78.6216 	 
C 	 0.845732 	 -10.3506 	 77.4425 	 
H 	 0.273984 	 -9.46226 	 77.1374 	 
H 	 1.75299 	 -10.4373 	 76.8029 	 
C 	 1.41448 	 -10.0528 	 78.7975 	 
H 	 1.95167 	 -10.9636 	 79.1441 	 
H 	 0.690639 	 -9.80893 	 79.5404 	 
C 	 2.4627 	 -8.89828 	 78.7691 	 
H 	 2.0207 	 -7.87807 	 78.8194 	 
H 	 3.15442 	 -8.92001 	 77.8998 	 
H 	 2.96046 	 -8.9634 	 79.7248 	 
H 	 4.44666 	 -14.2942 	 74.6663 	 
H 	 -2.68349 	 -13.2354 	 78.2439 	 
