34

S 	 22.7302 	 7.34006 	 64.994 	 
C 	 23.4295 	 7.81677 	 63.4451 	 
C 	 24.3483 	 8.81852 	 63.6352 	 
C 	 24.3318 	 9.34741 	 64.9939 	 
C 	 23.5311 	 8.66558 	 65.8682 	 
H 	 24.9713 	 10.1887 	 65.2778 	 
C 	 25.38 	 9.27081 	 62.5437 	 
H 	 25.0174 	 9.10246 	 61.5376 	 
H 	 26.165 	 8.61303 	 62.7151 	 
C 	 26.0114 	 10.6361 	 62.761 	 
H 	 26.3455 	 10.7598 	 63.7564 	 
H 	 26.9474 	 10.7564 	 62.1648 	 
C 	 25.0957 	 11.886 	 62.6476 	 
H 	 25.6618 	 12.7989 	 62.8087 	 
H 	 24.7506 	 11.9771 	 61.6148 	 
H 	 24.3825 	 11.7176 	 63.4045 	 
S 	 21.5145 	 8.99072 	 67.7001 	 
C 	 21.9162 	 9.23742 	 69.3913 	 
C 	 23.2542 	 9.56143 	 69.4865 	 
C 	 23.9941 	 9.56705 	 68.3131 	 
C 	 23.2164 	 9.0564 	 67.2527 	 
H 	 23.5584 	 9.70425 	 70.4789 	 
C 	 25.5131 	 9.96181 	 68.3129 	 
H 	 25.4841 	 11.0229 	 67.8573 	 
H 	 25.9639 	 9.28715 	 67.5594 	 
C 	 26.4183 	 10.148 	 69.5378 	 
H 	 26.3172 	 9.2588 	 70.2022 	 
H 	 25.9882 	 10.9414 	 70.1908 	 
C 	 27.8846 	 10.4842 	 69.2827 	 
H 	 28.4488 	 9.73346 	 68.6591 	 
H 	 28.3382 	 10.6742 	 70.2231 	 
H 	 28.0068 	 11.3756 	 68.6916 	 
H 	 23.2193 	 7.56804 	 62.4509 	 
H 	 21.2476 	 9.13116 	 70.2313 	 
