34

S 	 -16.2197 	 -6.18232 	 86.3622 	 
C 	 -17.38 	 -5.34536 	 85.3413 	 
C 	 -18.3093 	 -4.54103 	 86.0176 	 
C 	 -17.9459 	 -4.56229 	 87.3939 	 
C 	 -16.8213 	 -5.30247 	 87.7266 	 
H 	 -18.412 	 -3.97395 	 88.1736 	 
C 	 -19.6261 	 -3.89384 	 85.4595 	 
H 	 -20.4251 	 -4.14977 	 86.1362 	 
H 	 -19.804 	 -4.38076 	 84.5315 	 
C 	 -19.5641 	 -2.32451 	 85.0668 	 
H 	 -18.9078 	 -2.28039 	 84.2102 	 
H 	 -20.5731 	 -2.05573 	 84.6906 	 
C 	 -19.2448 	 -1.27573 	 86.1887 	 
H 	 -19.4312 	 -0.268043 	 85.8389 	 
H 	 -19.8306 	 -1.30052 	 87.0876 	 
H 	 -18.1417 	 -1.34207 	 86.3632 	 
S 	 -14.4761 	 -5.03346 	 89.0191 	 
C 	 -14.3805 	 -5.25383 	 90.7964 	 
C 	 -15.6442 	 -5.27739 	 91.3122 	 
C 	 -16.6643 	 -5.52775 	 90.317 	 
C 	 -16.1957 	 -5.31659 	 89.0215 	 
H 	 -15.7225 	 -5.19563 	 92.3552 	 
C 	 -18.1008 	 -5.73375 	 90.5912 	 
H 	 -18.1048 	 -6.63263 	 91.1858 	 
H 	 -18.6199 	 -5.95383 	 89.7125 	 
C 	 -18.8339 	 -4.57127 	 91.2273 	 
H 	 -18.6473 	 -3.65859 	 90.6193 	 
H 	 -18.3421 	 -4.40636 	 92.2216 	 
C 	 -20.3362 	 -4.90112 	 91.6127 	 
H 	 -20.8192 	 -3.88105 	 91.7945 	 
H 	 -20.4118 	 -5.56818 	 92.4745 	 
H 	 -20.9023 	 -5.48413 	 90.8518 	 
H 	 -17.5768 	 -5.53103 	 84.2843 	 
H 	 -13.5722 	 -5.24076 	 91.4324 	 
