34

S 	 5.83602 	 -11.8928 	 62.6687 	 
C 	 6.16692 	 -12.7407 	 64.2347 	 
C 	 5.12435 	 -12.4634 	 65.1073 	 
C 	 4.16176 	 -11.5993 	 64.5496 	 
C 	 4.38918 	 -11.1179 	 63.2433 	 
H 	 3.33197 	 -11.2491 	 65.0361 	 
C 	 4.87853 	 -12.9869 	 66.4953 	 
H 	 5.08007 	 -14.0566 	 66.3822 	 
H 	 3.85017 	 -12.9393 	 66.8544 	 
C 	 5.64711 	 -12.2899 	 67.6362 	 
H 	 6.63793 	 -12.1414 	 67.2291 	 
H 	 5.33077 	 -11.2697 	 67.6091 	 
C 	 5.42179 	 -13.0841 	 68.9807 	 
H 	 5.52056 	 -14.1248 	 68.6801 	 
H 	 6.23037 	 -12.7472 	 69.6077 	 
H 	 4.44771 	 -12.8474 	 69.3675 	 
S 	 4.23521 	 -8.71461 	 61.9056 	 
C 	 2.68931 	 -8.02449 	 61.7358 	 
C 	 1.65047 	 -8.93356 	 62.0432 	 
C 	 2.10156 	 -10.2065 	 62.4842 	 
C 	 3.47679 	 -10.2461 	 62.4914 	 
H 	 0.660737 	 -8.5267 	 61.9462 	 
C 	 1.17404 	 -11.1592 	 63.1189 	 
H 	 0.832403 	 -10.6996 	 64.0705 	 
H 	 1.84254 	 -12.0088 	 63.4211 	 
C 	 -0.0197709 	 -11.6595 	 62.2902 	 
H 	 0.239954 	 -11.8987 	 61.2862 	 
H 	 -0.662111 	 -10.798 	 62.188 	 
C 	 -0.873933 	 -12.7727 	 62.9859 	 
H 	 -0.209157 	 -13.6317 	 63.2399 	 
H 	 -1.73111 	 -13.0682 	 62.4255 	 
H 	 -1.34785 	 -12.4544 	 63.8991 	 
H 	 6.96689 	 -13.3876 	 64.4368 	 
H 	 2.43658 	 -7.03334 	 61.371 	 
