34

S 	 -30.9332 	 61.8189 	 110.15 	 
C 	 -29.5502 	 62.9668 	 109.972 	 
C 	 -29.6928 	 63.6235 	 108.761 	 
C 	 -30.7658 	 63.1471 	 107.89 	 
C 	 -31.5585 	 62.235 	 108.532 	 
H 	 -31.0407 	 63.501 	 106.908 	 
C 	 -28.9359 	 64.819 	 108.338 	 
H 	 -28.9937 	 64.9055 	 107.209 	 
H 	 -27.8878 	 64.7566 	 108.541 	 
C 	 -29.4495 	 66.2257 	 108.805 	 
H 	 -29.4613 	 66.211 	 109.869 	 
H 	 -28.7916 	 67.0656 	 108.593 	 
C 	 -30.8981 	 66.5856 	 108.423 	 
H 	 -31.6012 	 65.9008 	 108.9 	 
H 	 -31.033 	 67.6013 	 108.693 	 
H 	 -31.1385 	 66.4537 	 107.394 	 
S 	 -34.3296 	 62.2952 	 108.845 	 
C 	 -35.4159 	 61.6783 	 107.615 	 
C 	 -34.6296 	 61.1236 	 106.638 	 
C 	 -33.2674 	 61.0222 	 106.938 	 
C 	 -32.8501 	 61.7295 	 108.065 	 
H 	 -35.0921 	 60.6147 	 105.788 	 
C 	 -32.361 	 60.3166 	 106.007 	 
H 	 -31.7339 	 61.0963 	 105.685 	 
H 	 -32.8528 	 59.9851 	 105.114 	 
C 	 -31.6194 	 59.0713 	 106.467 	 
H 	 -32.225 	 58.1353 	 106.568 	 
H 	 -31.2956 	 59.2754 	 107.516 	 
C 	 -30.4188 	 58.6919 	 105.576 	 
H 	 -29.6597 	 59.5397 	 105.463 	 
H 	 -30.8997 	 58.5699 	 104.537 	 
H 	 -29.9258 	 57.7927 	 105.923 	 
H 	 -28.7398 	 63.1737 	 110.715 	 
H 	 -36.4739 	 61.6483 	 107.635 	 
