34

S 	 43.9012 	 12.7331 	 82.0027 	 
C 	 42.2351 	 12.7964 	 81.5246 	 
C 	 41.3955 	 13.0745 	 82.5891 	 
C 	 42.1413 	 13.0959 	 83.8567 	 
C 	 43.4726 	 12.8002 	 83.7103 	 
H 	 41.6675 	 13.0768 	 84.8428 	 
C 	 39.9647 	 13.403 	 82.5185 	 
H 	 39.8913 	 14.1325 	 81.7425 	 
H 	 39.7433 	 13.8117 	 83.4991 	 
C 	 39.0022 	 12.2521 	 82.2202 	 
H 	 39.4683 	 11.6311 	 81.4771 	 
H 	 39.0466 	 11.5748 	 83.0536 	 
C 	 37.5282 	 12.5706 	 81.9368 	 
H 	 37.4833 	 13.2182 	 81.0409 	 
H 	 36.9631 	 11.7037 	 81.8241 	 
H 	 37.1824 	 13.3348 	 82.6896 	 
S 	 44.5906 	 10.9903 	 85.4361 	 
C 	 46.046 	 11.4195 	 86.4071 	 
C 	 46.3268 	 12.7704 	 86.2552 	 
C 	 45.4637 	 13.412 	 85.3352 	 
C 	 44.5051 	 12.5995 	 84.7571 	 
H 	 47.1021 	 13.1809 	 86.9069 	 
C 	 45.5753 	 14.8718 	 84.9203 	 
H 	 44.6361 	 15.3408 	 85.1476 	 
H 	 45.7365 	 15.0206 	 83.8854 	 
C 	 46.5795 	 15.8283 	 85.6435 	 
H 	 46.3561 	 15.6897 	 86.65 	 
H 	 46.3835 	 16.8785 	 85.2839 	 
C 	 48.0278 	 15.4709 	 85.2293 	 
H 	 48.1564 	 15.3928 	 84.1326 	 
H 	 48.2504 	 14.521 	 85.6113 	 
H 	 48.7779 	 16.133 	 85.6345 	 
H 	 41.9553 	 12.623 	 80.5211 	 
H 	 46.6448 	 10.7918 	 87.0517 	 
