34

S 	 38.5283 	 24.5371 	 96.9642 	 
C 	 38.4152 	 24.5194 	 95.2311 	 
C 	 39.5165 	 23.9127 	 94.6317 	 
C 	 40.3706 	 23.3742 	 95.6312 	 
C 	 39.9798 	 23.5613 	 96.9492 	 
H 	 41.2871 	 22.857 	 95.5129 	 
C 	 39.7841 	 23.8521 	 93.1617 	 
H 	 40.8509 	 24.0963 	 92.9969 	 
H 	 39.2657 	 24.6506 	 92.558 	 
C 	 39.5724 	 22.4331 	 92.6318 	 
H 	 38.5249 	 22.1122 	 92.6494 	 
H 	 39.788 	 22.4654 	 91.5287 	 
C 	 40.5167 	 21.3977 	 93.107 	 
H 	 40.2216 	 20.8847 	 94.0168 	 
H 	 40.6176 	 20.6256 	 92.3287 	 
H 	 41.4683 	 21.9492 	 93.3167 	 
S 	 41.1526 	 24.6136 	 99.213 	 
C 	 41.9586 	 23.5438 	 100.295 	 
C 	 41.9627 	 22.2556 	 99.801 	 
C 	 41.2973 	 22.1016 	 98.5258 	 
C 	 40.7976 	 23.2846 	 98.1145 	 
H 	 42.4158 	 21.4768 	 100.37 	 
C 	 41.1307 	 20.7651 	 97.9044 	 
H 	 41.9231 	 20.0548 	 98.1992 	 
H 	 41.342 	 20.8941 	 96.8371 	 
C 	 39.8172 	 20.0688 	 98.2211 	 
H 	 39.7795 	 19.2785 	 97.5405 	 
H 	 38.9213 	 20.6875 	 98.0845 	 
C 	 39.6641 	 19.4441 	 99.6334 	 
H 	 40.1387 	 18.4841 	 99.5709 	 
H 	 38.6696 	 19.2227 	 99.9328 	 
H 	 40.0704 	 20.0211 	 100.464 	 
H 	 37.6219 	 25.0662 	 94.7643 	 
H 	 42.3276 	 23.8443 	 101.276 	 
