34

S 	 -45.7152 	 28.8436 	 90.2785 	 
C 	 -45.3229 	 28.5759 	 92.0016 	 
C 	 -46.0339 	 29.4953 	 92.7931 	 
C 	 -46.9389 	 30.2592 	 92.0384 	 
C 	 -46.8895 	 30.0974 	 90.6417 	 
H 	 -47.681 	 30.8971 	 92.5259 	 
C 	 -46.0776 	 29.5543 	 94.2863 	 
H 	 -47.0713 	 30.02 	 94.6426 	 
H 	 -45.2383 	 30.1772 	 94.5569 	 
C 	 -46.0281 	 28.2557 	 95.0237 	 
H 	 -46.9576 	 27.6858 	 94.8338 	 
H 	 -45.1445 	 27.7785 	 94.6661 	 
C 	 -45.91 	 28.4797 	 96.4932 	 
H 	 -45.2628 	 29.3529 	 96.5458 	 
H 	 -46.8166 	 28.8647 	 97.0146 	 
H 	 -45.6316 	 27.6101 	 96.9745 	 
S 	 -48.8616 	 29.9599 	 88.7684 	 
C 	 -49.1456 	 31.3096 	 87.7436 	 
C 	 -48.2709 	 32.3756 	 88.0083 	 
C 	 -47.3196 	 32.0838 	 89.0352 	 
C 	 -47.5714 	 30.8137 	 89.5439 	 
H 	 -48.3085 	 33.3329 	 87.4796 	 
C 	 -46.1136 	 32.9952 	 89.4213 	 
H 	 -45.35 	 32.7727 	 88.6663 	 
H 	 -45.6528 	 32.6613 	 90.3 	 
C 	 -46.4452 	 34.5712 	 89.5517 	 
H 	 -47.221 	 34.6525 	 90.2206 	 
H 	 -46.7076 	 34.9873 	 88.6582 	 
C 	 -45.2205 	 35.3614 	 90.1184 	 
H 	 -45.1467 	 35.0909 	 91.1819 	 
H 	 -45.4744 	 36.4162 	 90.1026 	 
H 	 -44.2917 	 35.2793 	 89.5519 	 
H 	 -44.7187 	 27.7883 	 92.4574 	 
H 	 -49.9287 	 31.412 	 86.9778 	 
