34

S 	 -1.703 	 -18.3313 	 92.4135 	 
C 	 -2.26456 	 -16.8538 	 91.6453 	 
C 	 -1.3902 	 -16.3304 	 90.7538 	 
C 	 -0.209325 	 -17.1681 	 90.6166 	 
C 	 -0.253444 	 -18.2726 	 91.4609 	 
H 	 0.653753 	 -17.0577 	 89.9454 	 
C 	 -1.56131 	 -15.1314 	 89.8629 	 
H 	 -0.796405 	 -14.3551 	 90.0869 	 
H 	 -2.6196 	 -14.8034 	 90.0852 	 
C 	 -1.40177 	 -15.4527 	 88.3265 	 
H 	 -1.88167 	 -14.6945 	 87.7806 	 
H 	 -0.384331 	 -15.4943 	 88.1143 	 
C 	 -2.17725 	 -16.625 	 87.8509 	 
H 	 -1.84375 	 -17.592 	 88.2938 	 
H 	 -3.17839 	 -16.5976 	 88.138 	 
H 	 -2.15398 	 -16.6467 	 86.7961 	 
S 	 1.67241 	 -19.4504 	 92.9709 	 
C 	 2.62986 	 -20.7583 	 92.3534 	 
C 	 2.23373 	 -21.0546 	 91.0544 	 
C 	 1.16725 	 -20.2542 	 90.5829 	 
C 	 0.729873 	 -19.3426 	 91.5077 	 
H 	 2.71645 	 -21.9015 	 90.5745 	 
C 	 0.708305 	 -20.4321 	 89.1535 	 
H 	 -0.125801 	 -19.8132 	 89.1313 	 
H 	 0.414484 	 -21.449 	 88.9311 	 
C 	 1.65819 	 -20.0501 	 87.9908 	 
H 	 2.46253 	 -20.8229 	 87.9495 	 
H 	 2.1886 	 -19.0487 	 87.9691 	 
C 	 1.10616 	 -20.2839 	 86.5609 	 
H 	 0.228269 	 -19.6634 	 86.4421 	 
H 	 1.04236 	 -21.3392 	 86.3653 	 
H 	 1.88763 	 -19.9633 	 85.8334 	 
H 	 -3.28722 	 -16.5895 	 91.6502 	 
H 	 3.45502 	 -21.2471 	 92.8756 	 
