34

S 	 23.8204 	 7.22529 	 66.7844 	 
C 	 24.8606 	 8.55244 	 66.3428 	 
C 	 24.6037 	 9.59989 	 67.2618 	 
C 	 23.8054 	 9.23 	 68.3651 	 
C 	 23.3643 	 7.95345 	 68.3087 	 
H 	 23.3104 	 9.8498 	 69.1209 	 
C 	 25.3632 	 11.0298 	 67.2909 	 
H 	 25.0926 	 11.6451 	 68.1772 	 
H 	 24.8513 	 11.432 	 66.3949 	 
C 	 26.8758 	 10.9535 	 67.0938 	 
H 	 27.242 	 10.4194 	 67.9777 	 
H 	 27.1872 	 10.3 	 66.3056 	 
C 	 27.5396 	 12.3292 	 66.9131 	 
H 	 27.8194 	 12.8653 	 67.7774 	 
H 	 28.3692 	 12.1508 	 66.2713 	 
H 	 26.8323 	 12.9579 	 66.4167 	 
S 	 20.8084 	 7.19173 	 68.5655 	 
C 	 20.0479 	 6.84799 	 70.0913 	 
C 	 20.9977 	 6.97768 	 71.1008 	 
C 	 22.3376 	 7.26344 	 70.6234 	 
C 	 22.4121 	 7.41905 	 69.2461 	 
H 	 20.6612 	 6.8021 	 72.1727 	 
C 	 23.4961 	 7.25597 	 71.5517 	 
H 	 24.4988 	 6.97116 	 71.0724 	 
H 	 23.4266 	 6.37783 	 72.2167 	 
C 	 23.5544 	 8.62196 	 72.2717 	 
H 	 22.6999 	 8.71529 	 72.9121 	 
H 	 23.5398 	 9.39883 	 71.4605 	 
C 	 24.806 	 8.90808 	 73.0837 	 
H 	 24.7998 	 8.32802 	 73.9916 	 
H 	 24.7531 	 9.99893 	 73.3668 	 
H 	 25.7672 	 8.86406 	 72.5759 	 
H 	 25.4732 	 8.6597 	 65.4311 	 
H 	 18.9875 	 6.88304 	 70.2694 	 
