34

S 	 -65.5225 	 35.1608 	 119.007 	 
C 	 -65.2807 	 34.3541 	 120.506 	 
C 	 -66.0216 	 34.9284 	 121.515 	 
C 	 -66.7222 	 36.1066 	 121.082 	 
C 	 -66.6083 	 36.3832 	 119.733 	 
H 	 -67.2649 	 36.7973 	 121.666 	 
C 	 -65.9695 	 34.3003 	 122.933 	 
H 	 -64.9913 	 34.598 	 123.282 	 
H 	 -65.9973 	 33.1636 	 122.843 	 
C 	 -66.901 	 34.8169 	 124.021 	 
H 	 -66.5509 	 34.4045 	 124.987 	 
H 	 -66.8024 	 35.9553 	 124.141 	 
C 	 -68.3765 	 34.4389 	 123.785 	 
H 	 -68.4601 	 33.3724 	 123.58 	 
H 	 -68.9742 	 34.5565 	 124.695 	 
H 	 -68.9 	 34.9352 	 122.933 	 
S 	 -65.8236 	 38.8124 	 118.656 	 
C 	 -66.9375 	 39.8073 	 117.852 	 
C 	 -68.2673 	 39.4129 	 118.095 	 
C 	 -68.3105 	 38.1391 	 118.769 	 
C 	 -67.0186 	 37.654 	 119.081 	 
H 	 -68.9624 	 39.9764 	 117.532 	 
C 	 -69.5768 	 37.2681 	 118.86 	 
H 	 -69.9209 	 37.3202 	 119.893 	 
H 	 -69.3131 	 36.191 	 118.661 	 
C 	 -70.6988 	 37.78 	 117.898 	 
H 	 -70.9877 	 38.8211 	 118.126 	 
H 	 -71.611 	 37.2851 	 118.066 	 
C 	 -70.2324 	 37.6517 	 116.463 	 
H 	 -70.2029 	 36.6306 	 116.224 	 
H 	 -69.2665 	 38.0641 	 116.205 	 
H 	 -70.9272 	 38.1176 	 115.747 	 
H 	 -64.6988 	 33.408 	 120.784 	 
H 	 -66.6974 	 40.6001 	 117.158 	 
