34

S 	 -7.56616 	 44.386 	 36.9635 	 
C 	 -6.96698 	 45.8915 	 36.1283 	 
C 	 -6.06738 	 46.5979 	 36.849 	 
C 	 -5.56852 	 45.8147 	 37.9456 	 
C 	 -6.23077 	 44.6028 	 38.1988 	 
H 	 -4.80391 	 46.1113 	 38.6409 	 
C 	 -5.50831 	 47.8797 	 36.3584 	 
H 	 -5.25593 	 47.7753 	 35.2704 	 
H 	 -4.49308 	 48.1408 	 36.7372 	 
C 	 -6.43759 	 49.1491 	 36.5062 	 
H 	 -6.0564 	 50.0463 	 35.9913 	 
H 	 -7.38595 	 48.9165 	 36.009 	 
C 	 -6.73884 	 49.5071 	 37.9761 	 
H 	 -7.25813 	 48.7013 	 38.4661 	 
H 	 -5.82679 	 49.6687 	 38.5158 	 
H 	 -7.39666 	 50.3817 	 37.971 	 
S 	 -7.34916 	 43.2726 	 40.2922 	 
C 	 -6.39503 	 42.3513 	 41.3568 	 
C 	 -5.02327 	 42.5789 	 41.1626 	 
C 	 -4.76172 	 43.3295 	 39.9655 	 
C 	 -5.96555 	 43.6972 	 39.3649 	 
H 	 -4.35508 	 42.1911 	 41.8844 	 
C 	 -3.42409 	 43.5286 	 39.2683 	 
H 	 -3.5914 	 43.9686 	 38.2781 	 
H 	 -2.95992 	 42.5041 	 39.234 	 
C 	 -2.45202 	 44.4761 	 39.937 	 
H 	 -2.38881 	 44.1901 	 40.9948 	 
H 	 -2.94359 	 45.509 	 39.9094 	 
C 	 -1.09978 	 44.5058 	 39.113 	 
H 	 -1.20823 	 44.8529 	 38.1503 	 
H 	 -0.535574 	 43.5998 	 39.0858 	 
H 	 -0.460188 	 45.2389 	 39.4988 	 
H 	 -7.48448 	 46.3189 	 35.2378 	 
H 	 -6.78815 	 41.9162 	 42.205 	 
