34

S 	 -74.283 	 50.6826 	 138.005 	 
C 	 -73.2627 	 51.8675 	 138.952 	 
C 	 -73.7117 	 53.1727 	 138.822 	 
C 	 -74.8925 	 53.2908 	 138.045 	 
C 	 -75.2557 	 52.0504 	 137.543 	 
H 	 -75.5272 	 54.0995 	 137.991 	 
C 	 -73.1668 	 54.4208 	 139.57 	 
H 	 -73.0634 	 55.2488 	 138.846 	 
H 	 -72.1341 	 54.2501 	 139.922 	 
C 	 -73.9918 	 54.7621 	 140.869 	 
H 	 -74.997 	 54.9379 	 140.387 	 
H 	 -74.0565 	 54.0276 	 141.583 	 
C 	 -73.4409 	 55.9414 	 141.683 	 
H 	 -72.5508 	 55.64 	 142.336 	 
H 	 -73.0538 	 56.6911 	 141.051 	 
H 	 -74.2745 	 56.2963 	 142.364 	 
S 	 -76.727 	 51.1625 	 135.392 	 
C 	 -78.4735 	 51.0014 	 135.525 	 
C 	 -78.8963 	 51.6612 	 136.607 	 
C 	 -77.8375 	 52.1001 	 137.507 	 
C 	 -76.6022 	 51.8109 	 137.045 	 
H 	 -79.9667 	 51.7018 	 136.751 	 
C 	 -78.191 	 52.7508 	 138.83 	 
H 	 -79.2733 	 52.9408 	 138.829 	 
H 	 -77.6752 	 53.7586 	 138.872 	 
C 	 -77.694 	 52.1199 	 140.108 	 
H 	 -78.0777 	 52.6716 	 140.974 	 
H 	 -76.5945 	 52.0736 	 140.225 	 
C 	 -78.1608 	 50.6289 	 140.2 	 
H 	 -77.7916 	 50.0884 	 139.308 	 
H 	 -79.2282 	 50.4606 	 140.04 	 
H 	 -77.793 	 50.2534 	 141.153 	 
H 	 -72.3697 	 51.6549 	 139.48 	 
H 	 -79.1308 	 50.4453 	 134.902 	 
