34

S 	 -98.295 	 40.4397 	 122.243 	 
C 	 -99.4007 	 40.8393 	 123.517 	 
C 	 -98.8988 	 41.5866 	 124.593 	 
C 	 -97.4507 	 41.6628 	 124.342 	 
C 	 -96.9913 	 41.2112 	 123.127 	 
H 	 -96.7808 	 42.1853 	 124.977 	 
C 	 -99.6243 	 41.8719 	 125.887 	 
H 	 -100.66 	 41.4614 	 125.812 	 
H 	 -99.8224 	 42.9117 	 125.979 	 
C 	 -98.8595 	 41.6041 	 127.189 	 
H 	 -97.7945 	 41.9475 	 127.152 	 
H 	 -99.2892 	 42.2206 	 128.011 	 
C 	 -99.1034 	 40.1856 	 127.688 	 
H 	 -98.7761 	 39.3294 	 127.098 	 
H 	 -98.5894 	 40.0332 	 128.655 	 
H 	 -100.094 	 39.9559 	 127.999 	 
S 	 -94.375 	 40.7994 	 123.371 	 
C 	 -93.2531 	 41.6831 	 122.373 	 
C 	 -93.946 	 42.5765 	 121.529 	 
C 	 -95.3554 	 42.4838 	 121.654 	 
C 	 -95.7004 	 41.5471 	 122.631 	 
H 	 -93.427 	 43.0845 	 120.767 	 
C 	 -96.2682 	 43.5196 	 120.913 	 
H 	 -97.3288 	 43.3958 	 121.123 	 
H 	 -96.1362 	 43.2963 	 119.872 	 
C 	 -95.7687 	 44.9942 	 120.945 	 
H 	 -96.4213 	 45.737 	 120.506 	 
H 	 -94.6969 	 45.1127 	 120.415 	 
C 	 -95.6906 	 45.5782 	 122.398 	 
H 	 -95.2702 	 46.6071 	 122.383 	 
H 	 -94.9669 	 44.9769 	 122.964 	 
H 	 -96.6295 	 45.6802 	 122.916 	 
H 	 -100.405 	 40.5729 	 123.363 	 
H 	 -92.2328 	 41.3552 	 122.254 	 
