34

S 	 -12.9851 	 32.6448 	 36.1405 	 
C 	 -12.5558 	 33.9252 	 35.0304 	 
C 	 -13.5667 	 34.4021 	 34.2618 	 
C 	 -14.725 	 33.5876 	 34.4346 	 
C 	 -14.4934 	 32.5513 	 35.3319 	 
H 	 -15.6847 	 33.6171 	 33.8466 	 
C 	 -13.4122 	 35.6849 	 33.4467 	 
H 	 -14.14 	 35.7462 	 32.6305 	 
H 	 -12.4647 	 35.6263 	 32.9693 	 
C 	 -13.4138 	 36.9273 	 34.3016 	 
H 	 -14.1811 	 36.8887 	 35.104 	 
H 	 -12.4291 	 36.919 	 34.8622 	 
C 	 -13.6537 	 38.1963 	 33.5144 	 
H 	 -13.6937 	 39.0009 	 34.2281 	 
H 	 -12.9051 	 38.3638 	 32.6775 	 
H 	 -14.636 	 38.0962 	 33.0197 	 
S 	 -15.7813 	 31.2647 	 37.497 	 
C 	 -16.8229 	 29.9535 	 37.1609 	 
C 	 -17.1751 	 29.8696 	 35.8376 	 
C 	 -16.3454 	 30.6697 	 35.0304 	 
C 	 -15.4943 	 31.543 	 35.7383 	 
H 	 -17.9459 	 29.1338 	 35.6028 	 
C 	 -16.3343 	 30.3445 	 33.5373 	 
H 	 -15.88 	 29.344 	 33.5154 	 
H 	 -15.6549 	 30.9865 	 32.8647 	 
C 	 -17.7131 	 30.4333 	 32.882 	 
H 	 -18.4307 	 29.9235 	 33.5288 	 
H 	 -17.7578 	 29.9633 	 31.9344 	 
C 	 -18.2496 	 31.8732 	 32.6476 	 
H 	 -19.2708 	 31.9986 	 32.7729 	 
H 	 -17.9417 	 32.199 	 31.6679 	 
H 	 -17.7432 	 32.5934 	 33.2871 	 
H 	 -11.6192 	 34.4594 	 34.9928 	 
H 	 -17.1842 	 29.2716 	 37.9879 	 
