34

S 	 -107.728 	 43.2983 	 128.373 	 
C 	 -106.759 	 42.9872 	 129.842 	 
C 	 -105.776 	 41.9955 	 129.618 	 
C 	 -105.825 	 41.4641 	 128.276 	 
C 	 -106.781 	 42.077 	 127.459 	 
H 	 -105.196 	 40.6765 	 127.935 	 
C 	 -104.784 	 41.4088 	 130.605 	 
H 	 -104.06 	 40.7824 	 129.942 	 
H 	 -105.346 	 40.6297 	 131.17 	 
C 	 -104.165 	 42.5071 	 131.511 	 
H 	 -103.637 	 43.1399 	 130.863 	 
H 	 -104.903 	 43.1325 	 131.943 	 
C 	 -103.231 	 41.9585 	 132.59 	 
H 	 -103.751 	 41.3211 	 133.414 	 
H 	 -102.517 	 41.313 	 132.095 	 
H 	 -102.711 	 42.7778 	 133.102 	 
S 	 -106.651 	 40.4776 	 125.277 	 
C 	 -106.687 	 41.2422 	 123.665 	 
C 	 -106.927 	 42.602 	 123.763 	 
C 	 -107.022 	 43.0426 	 125.106 	 
C 	 -106.843 	 42.0474 	 126.032 	 
H 	 -106.933 	 43.2276 	 122.955 	 
C 	 -106.976 	 44.5309 	 125.429 	 
H 	 -107.544 	 44.808 	 126.283 	 
H 	 -107.628 	 45.1068 	 124.673 	 
C 	 -105.551 	 45.1396 	 125.604 	 
H 	 -105.066 	 45.0156 	 124.609 	 
H 	 -105.06 	 44.6734 	 126.484 	 
C 	 -105.649 	 46.68 	 125.895 	 
H 	 -106.129 	 46.8417 	 126.872 	 
H 	 -106.202 	 47.0722 	 125.074 	 
H 	 -104.681 	 47.2296 	 125.954 	 
H 	 -106.772 	 43.5266 	 130.802 	 
H 	 -106.591 	 40.7016 	 122.751 	 
