34

S 	 53.9016 	 15.1142 	 78.6519 	 
C 	 55.6131 	 15.4385 	 78.9927 	 
C 	 56.2039 	 14.2789 	 79.5421 	 
C 	 55.3098 	 13.2386 	 79.7497 	 
C 	 54.0152 	 13.5055 	 79.3286 	 
H 	 55.5561 	 12.3157 	 80.2242 	 
C 	 57.6495 	 14.0862 	 80.074 	 
H 	 58.3556 	 14.5583 	 79.3541 	 
H 	 57.8631 	 13.0337 	 80.127 	 
C 	 57.974 	 14.6759 	 81.4969 	 
H 	 57.3431 	 14.2689 	 82.3428 	 
H 	 58.9874 	 14.4192 	 81.8072 	 
C 	 58.035 	 16.2637 	 81.3673 	 
H 	 58.8115 	 16.5535 	 80.6524 	 
H 	 56.9971 	 16.6324 	 81.1555 	 
H 	 58.4313 	 16.5185 	 82.3293 	 
S 	 51.3812 	 13.1524 	 80.2834 	 
C 	 50.5761 	 11.5759 	 80.1661 	 
C 	 51.4603 	 10.6557 	 79.6118 	 
C 	 52.7573 	 11.173 	 79.3437 	 
C 	 52.9075 	 12.5596 	 79.5803 	 
H 	 51.1347 	 9.63341 	 79.6144 	 
C 	 53.9089 	 10.3267 	 78.8729 	 
H 	 54.3382 	 9.93116 	 79.7169 	 
H 	 54.7549 	 10.9402 	 78.488 	 
C 	 53.6348 	 9.16408 	 77.9284 	 
H 	 53.2567 	 9.54681 	 77.0013 	 
H 	 52.9071 	 8.4133 	 78.2266 	 
C 	 54.8771 	 8.2756 	 77.6981 	 
H 	 55.308 	 7.89322 	 78.639 	 
H 	 55.6845 	 8.77152 	 77.1824 	 
H 	 54.6518 	 7.41268 	 77.1456 	 
H 	 56.0896 	 16.316 	 78.7381 	 
H 	 49.7411 	 11.2018 	 80.6444 	 
