34

S 	 -15.4438 	 47.1052 	 31.1166 	 
C 	 -13.9688 	 47.3357 	 30.1965 	 
C 	 -13.1546 	 46.203 	 30.3541 	 
C 	 -13.7616 	 45.2297 	 31.2063 	 
C 	 -15.0277 	 45.5325 	 31.6638 	 
H 	 -13.3368 	 44.2886 	 31.5561 	 
C 	 -11.8069 	 45.9848 	 29.685 	 
H 	 -11.4479 	 46.9549 	 29.2572 	 
H 	 -11.9625 	 45.357 	 28.7763 	 
C 	 -10.7217 	 45.3706 	 30.6085 	 
H 	 -11.0352 	 44.5196 	 31.142 	 
H 	 -9.8677 	 45.0981 	 30.0257 	 
C 	 -10.2155 	 46.4992 	 31.5221 	 
H 	 -9.90903 	 47.3868 	 30.9075 	 
H 	 -10.9696 	 46.7492 	 32.2709 	 
H 	 -9.25766 	 46.2607 	 32.017 	 
S 	 -16.4129 	 45.2959 	 34.0943 	 
C 	 -17.4075 	 43.8691 	 34.4029 	 
C 	 -17.3287 	 43.0209 	 33.3034 	 
C 	 -16.4182 	 43.4102 	 32.2845 	 
C 	 -15.8999 	 44.7258 	 32.5212 	 
H 	 -17.7659 	 42.0438 	 33.3889 	 
C 	 -16.4034 	 42.646 	 31.0108 	 
H 	 -15.4354 	 42.7296 	 30.5961 	 
H 	 -17.0188 	 43.2186 	 30.2 	 
C 	 -16.8659 	 41.2254 	 31.044 	 
H 	 -17.9332 	 41.2837 	 31.2583 	 
H 	 -16.3824 	 40.6517 	 31.8389 	 
C 	 -16.5621 	 40.6232 	 29.6453 	 
H 	 -15.491 	 40.9605 	 29.2313 	 
H 	 -17.2996 	 40.9886 	 28.8838 	 
H 	 -16.6681 	 39.5446 	 29.5392 	 
H 	 -13.7112 	 48.1288 	 29.5468 	 
H 	 -18.0243 	 43.6148 	 35.2374 	 
