34

S 	 -78.2453 	 39.8217 	 138.82 	 
C 	 -77.525 	 38.199 	 138.635 	 
C 	 -77.0573 	 38.0192 	 137.342 	 
C 	 -77.3805 	 39.0848 	 136.52 	 
C 	 -77.9778 	 40.186 	 137.14 	 
H 	 -77.2237 	 39.0958 	 135.446 	 
C 	 -76.1499 	 36.8991 	 137.052 	 
H 	 -76.2398 	 36.7495 	 136.008 	 
H 	 -76.6426 	 36.1147 	 137.509 	 
C 	 -74.6538 	 37.0125 	 137.52 	 
H 	 -74.6125 	 36.9596 	 138.565 	 
H 	 -74.098 	 36.0489 	 137.173 	 
C 	 -73.9637 	 38.236 	 136.932 	 
H 	 -74.4402 	 39.1278 	 137.239 	 
H 	 -72.9061 	 38.3647 	 137.054 	 
H 	 -74.067 	 38.2334 	 135.832 	 
S 	 -77.9508 	 42.8518 	 137.59 	 
C 	 -78.2953 	 44.0054 	 136.379 	 
C 	 -78.8463 	 43.4096 	 135.301 	 
C 	 -78.8394 	 41.9543 	 135.385 	 
C 	 -78.362 	 41.5032 	 136.583 	 
H 	 -79.2019 	 43.9414 	 134.406 	 
C 	 -79.2368 	 41.1622 	 134.143 	 
H 	 -78.3439 	 40.6151 	 133.752 	 
H 	 -79.4934 	 41.8849 	 133.372 	 
C 	 -80.4051 	 40.1972 	 134.25 	 
H 	 -79.9982 	 39.3067 	 134.71 	 
H 	 -80.6543 	 39.8846 	 133.248 	 
C 	 -81.6611 	 40.6958 	 135.06 	 
H 	 -82.5338 	 40.0026 	 135 	 
H 	 -82.0657 	 41.6002 	 134.652 	 
H 	 -81.5075 	 40.8918 	 136.107 	 
H 	 -77.4551 	 37.5496 	 139.496 	 
H 	 -78.2331 	 45.0829 	 136.537 	 
