34

S 	 -47.3454 	 53.8559 	 99.7443 	 
C 	 -45.7988 	 53.0848 	 100.051 	 
C 	 -44.9946 	 53.1649 	 98.905 	 
C 	 -45.6568 	 53.7974 	 97.8171 	 
C 	 -46.8882 	 54.2921 	 98.0781 	 
H 	 -45.3306 	 53.7261 	 96.7279 	 
C 	 -43.6603 	 52.4888 	 98.7569 	 
H 	 -43.7415 	 51.8291 	 97.8739 	 
H 	 -43.4288 	 51.9683 	 99.7782 	 
C 	 -42.4681 	 53.4119 	 98.5844 	 
H 	 -41.6031 	 52.88 	 98.2315 	 
H 	 -42.7739 	 53.9947 	 97.7169 	 
C 	 -42.0682 	 54.2646 	 99.82 	 
H 	 -41.0554 	 54.6704 	 99.7492 	 
H 	 -42.9233 	 54.9357 	 100.133 	 
H 	 -42.0359 	 53.6329 	 100.748 	 
S 	 -49.3591 	 54.1896 	 96.9004 	 
C 	 -49.6825 	 55.16 	 95.5645 	 
C 	 -48.7078 	 56.1261 	 95.2916 	 
C 	 -47.5745 	 55.869 	 96.169 	 
C 	 -47.8047 	 54.8993 	 97.1158 	 
H 	 -48.7995 	 56.9314 	 94.6157 	 
C 	 -46.2919 	 56.7345 	 96.0581 	 
H 	 -45.7737 	 56.3599 	 95.1497 	 
H 	 -45.6371 	 56.413 	 96.8152 	 
C 	 -46.4553 	 58.2853 	 95.9739 	 
H 	 -46.9962 	 58.5721 	 95.1478 	 
H 	 -45.4945 	 58.8001 	 95.7031 	 
C 	 -47.2157 	 58.9318 	 97.2228 	 
H 	 -47.2809 	 60.0256 	 97.1175 	 
H 	 -46.6197 	 58.8491 	 98.1159 	 
H 	 -48.2628 	 58.6597 	 97.3685 	 
H 	 -45.4416 	 52.6016 	 100.897 	 
H 	 -50.6291 	 55.2791 	 95.0172 	 
