34

S 	 -32.5959 	 1.02132 	 98.109 	 
C 	 -32.0157 	 1.73606 	 96.6046 	 
C 	 -33.008 	 2.26239 	 95.867 	 
C 	 -34.2598 	 2.2344 	 96.5271 	 
C 	 -34.2503 	 1.61621 	 97.7373 	 
H 	 -35.2347 	 2.56753 	 96.1691 	 
C 	 -32.8776 	 2.78439 	 94.3478 	 
H 	 -32.039 	 3.51889 	 94.3153 	 
H 	 -33.7977 	 3.30876 	 94.0033 	 
C 	 -32.5705 	 1.70841 	 93.2511 	 
H 	 -32.0817 	 0.903985 	 93.7828 	 
H 	 -33.4782 	 1.20751 	 92.9524 	 
C 	 -31.7992 	 2.1471 	 91.9848 	 
H 	 -31.2647 	 3.01998 	 92.2264 	 
H 	 -31.0753 	 1.44006 	 91.6259 	 
H 	 -32.4034 	 2.43189 	 91.1062 	 
S 	 -35.3408 	 2.02182 	 100.325 	 
C 	 -37.01 	 1.47781 	 100.559 	 
C 	 -37.6446 	 1.10999 	 99.3836 	 
C 	 -36.7293 	 1.12942 	 98.2571 	 
C 	 -35.3974 	 1.41506 	 98.6172 	 
H 	 -38.6268 	 0.769298 	 99.459 	 
C 	 -37.3211 	 0.725668 	 96.8871 	 
H 	 -36.6206 	 0.818289 	 96.0812 	 
H 	 -38.0783 	 1.52893 	 96.7364 	 
C 	 -37.9846 	 -0.674547 	 96.7773 	 
H 	 -38.558 	 -0.680786 	 95.853 	 
H 	 -38.5942 	 -0.900721 	 97.5979 	 
C 	 -36.9282 	 -1.81197 	 96.5723 	 
H 	 -37.3951 	 -2.75238 	 96.4438 	 
H 	 -36.2288 	 -2.0571 	 97.3797 	 
H 	 -36.242 	 -1.63754 	 95.7019 	 
H 	 -30.9924 	 1.75189 	 96.2256 	 
H 	 -37.3847 	 1.42394 	 101.57 	 
