34

S 	 0.516207 	 30.9126 	 40.294 	 
C 	 1.21667 	 30.7068 	 38.6823 	 
C 	 0.986247 	 31.8365 	 37.8971 	 
C 	 -0.0605843 	 32.6225 	 38.4459 	 
C 	 -0.464715 	 32.1805 	 39.7452 	 
H 	 -0.678564 	 33.4594 	 38.1003 	 
C 	 1.57003 	 32.0238 	 36.4789 	 
H 	 2.62912 	 31.9213 	 36.593 	 
H 	 1.46074 	 33.0636 	 36.1359 	 
C 	 1.01336 	 31.036 	 35.3731 	 
H 	 1.05785 	 29.978 	 35.6596 	 
H 	 -0.0615865 	 31.1152 	 35.311 	 
C 	 1.59388 	 31.2889 	 33.9387 	 
H 	 1.28545 	 32.2098 	 33.4585 	 
H 	 2.66618 	 31.3409 	 33.8878 	 
H 	 1.42713 	 30.4073 	 33.2388 	 
S 	 -1.31612 	 33.622 	 41.8809 	 
C 	 -2.98233 	 33.7432 	 42.2083 	 
C 	 -3.79008 	 32.9938 	 41.3654 	 
C 	 -2.96393 	 32.3805 	 40.3722 	 
C 	 -1.63404 	 32.6537 	 40.5175 	 
H 	 -4.86717 	 33.1333 	 41.3523 	 
C 	 -3.52791 	 31.3851 	 39.3241 	 
H 	 -4.23721 	 30.8824 	 39.9432 	 
H 	 -2.74292 	 30.6704 	 39.0671 	 
C 	 -4.1661 	 32.0904 	 38.1072 	 
H 	 -3.49962 	 32.7949 	 37.5723 	 
H 	 -4.84946 	 32.8741 	 38.4947 	 
C 	 -4.92327 	 31.1115 	 37.1678 	 
H 	 -4.18662 	 30.4597 	 36.7129 	 
H 	 -5.53728 	 31.7867 	 36.528 	 
H 	 -5.6981 	 30.5981 	 37.6927 	 
H 	 1.91614 	 29.8769 	 38.3182 	 
H 	 -3.50032 	 34.2563 	 43.0112 	 
