34

S 	 48.1413 	 24.8286 	 44.9805 	 
C 	 49.8221 	 24.4728 	 44.4833 	 
C 	 50.6838 	 25.2152 	 45.2723 	 
C 	 49.9564 	 25.9394 	 46.3228 	 
C 	 48.6348 	 25.623 	 46.4102 	 
H 	 50.4503 	 26.5947 	 46.9966 	 
C 	 52.1297 	 25.3485 	 44.863 	 
H 	 52.0194 	 25.5794 	 43.7933 	 
H 	 52.7715 	 24.4441 	 44.8495 	 
C 	 53.0224 	 26.2883 	 45.7341 	 
H 	 52.5536 	 27.2857 	 45.734 	 
H 	 53.1626 	 25.9995 	 46.8241 	 
C 	 54.4582 	 26.4171 	 45.2167 	 
H 	 54.9674 	 27.0776 	 45.8994 	 
H 	 55.0163 	 25.423 	 45.3105 	 
H 	 54.4478 	 26.8803 	 44.2432 	 
S 	 47.286 	 27.9106 	 47.2915 	 
C 	 45.9807 	 27.8915 	 48.4092 	 
C 	 45.8096 	 26.6343 	 48.9611 	 
C 	 46.6846 	 25.6422 	 48.2922 	 
C 	 47.5554 	 26.1888 	 47.3149 	 
H 	 44.9631 	 26.3815 	 49.5557 	 
C 	 46.4512 	 24.104 	 48.5125 	 
H 	 46.7691 	 23.7619 	 49.4937 	 
H 	 47.1078 	 23.6206 	 47.8008 	 
C 	 44.9537 	 23.698 	 48.2655 	 
H 	 44.6538 	 24.1484 	 47.3118 	 
H 	 44.4919 	 24.0971 	 49.1931 	 
C 	 44.7565 	 22.2145 	 48.106 	 
H 	 43.77 	 21.7526 	 47.8817 	 
H 	 45.0175 	 21.5956 	 48.9562 	 
H 	 45.3963 	 21.9019 	 47.3513 	 
H 	 50.1136 	 24.0602 	 43.5399 	 
H 	 45.5436 	 28.6827 	 48.8759 	 
