34

S 	 15.8549 	 4.70498 	 86.1127 	 
C 	 16.626 	 6.17147 	 86.7027 	 
C 	 15.7111 	 7.02229 	 87.2672 	 
C 	 14.4167 	 6.62422 	 86.9739 	 
C 	 14.2357 	 5.41467 	 86.3431 	 
H 	 13.6215 	 7.17462 	 87.2868 	 
C 	 16.0451 	 8.02963 	 88.3173 	 
H 	 17.1286 	 8.16125 	 88.3345 	 
H 	 15.7315 	 7.6729 	 89.2775 	 
C 	 15.5652 	 9.46895 	 88.1922 	 
H 	 14.4966 	 9.47613 	 87.9424 	 
H 	 15.5315 	 9.98947 	 89.1724 	 
C 	 16.4588 	 10.3941 	 87.2562 	 
H 	 16.2846 	 10.292 	 86.221 	 
H 	 16.3125 	 11.3909 	 87.5983 	 
H 	 17.4973 	 10.3026 	 87.3453 	 
S 	 12.5599 	 3.13589 	 86.7956 	 
C 	 10.8992 	 3.37982 	 86.4107 	 
C 	 10.5805 	 4.64119 	 85.9305 	 
C 	 11.7752 	 5.39628 	 85.7435 	 
C 	 12.9436 	 4.77636 	 86.1575 	 
H 	 9.56365 	 4.89616 	 85.6054 	 
C 	 11.6609 	 6.71143 	 84.9764 	 
H 	 11.5034 	 6.41376 	 83.9677 	 
H 	 12.5715 	 7.26617 	 85.0553 	 
C 	 10.5085 	 7.66019 	 85.4115 	 
H 	 9.47865 	 7.34274 	 85.1048 	 
H 	 10.6434 	 8.64533 	 84.9892 	 
C 	 10.5551 	 7.86278 	 86.9392 	 
H 	 11.6146 	 7.91661 	 87.3567 	 
H 	 10.1626 	 6.9808 	 87.4658 	 
H 	 9.90726 	 8.72783 	 87.284 	 
H 	 17.5822 	 6.1852 	 87.1364 	 
H 	 10.1106 	 2.71629 	 86.7146 	 
