34

S 	 -39.2784 	 30.1716 	 91.5228 	 
C 	 -39.3985 	 28.7369 	 92.4652 	 
C 	 -40.4224 	 27.9439 	 92.0396 	 
C 	 -41.1931 	 28.4762 	 91.0119 	 
C 	 -40.6671 	 29.7064 	 90.5372 	 
H 	 -42.0167 	 28.2216 	 90.41 	 
C 	 -40.8269 	 26.5682 	 92.646 	 
H 	 -40.0662 	 25.8908 	 92.4049 	 
H 	 -41.6865 	 26.1672 	 92.1429 	 
C 	 -40.9732 	 26.4724 	 94.107 	 
H 	 -41.0377 	 25.3938 	 94.4552 	 
H 	 -40.1577 	 26.8643 	 94.6871 	 
C 	 -42.168 	 27.1461 	 94.659 	 
H 	 -42.1456 	 28.1941 	 94.3686 	 
H 	 -43.0836 	 26.7232 	 94.2929 	 
H 	 -42.2321 	 27.0356 	 95.7538 	 
S 	 -42.7963 	 31.1242 	 89.3826 	 
C 	 -42.4463 	 32.1017 	 87.925 	 
C 	 -41.1217 	 32.0484 	 87.6051 	 
C 	 -40.3879 	 31.1501 	 88.4222 	 
C 	 -41.0974 	 30.5285 	 89.4178 	 
H 	 -40.7638 	 32.6851 	 86.8223 	 
C 	 -38.9073 	 30.8585 	 88.1398 	 
H 	 -38.827 	 30.5408 	 87.0687 	 
H 	 -38.7346 	 29.9235 	 88.7561 	 
C 	 -37.7563 	 31.8164 	 88.4999 	 
H 	 -36.9058 	 31.1442 	 88.5154 	 
H 	 -37.7891 	 32.2882 	 89.5265 	 
C 	 -37.6273 	 33.0027 	 87.5721 	 
H 	 -36.6087 	 33.3588 	 87.753 	 
H 	 -38.2939 	 33.8085 	 87.8727 	 
H 	 -37.8427 	 32.6801 	 86.505 	 
H 	 -38.6401 	 28.4704 	 93.18 	 
H 	 -43.2227 	 32.7302 	 87.4544 	 
