34

S 	 53.4896 	 20.9606 	 47.1393 	 
C 	 53.3331 	 21.437 	 45.428 	 
C 	 53.9908 	 20.5583 	 44.6207 	 
C 	 54.6324 	 19.4955 	 45.3928 	 
C 	 54.4613 	 19.5624 	 46.7605 	 
H 	 55.3801 	 18.7976 	 45.0581 	 
C 	 54.3628 	 20.7919 	 43.1651 	 
H 	 55.507 	 20.8759 	 43.1809 	 
H 	 54.1242 	 21.823 	 42.801 	 
C 	 53.7829 	 19.7495 	 42.2263 	 
H 	 54.0341 	 20.148 	 41.1943 	 
H 	 54.2902 	 18.8447 	 42.3836 	 
C 	 52.2656 	 19.5256 	 42.2764 	 
H 	 51.7767 	 19.3932 	 43.2312 	 
H 	 51.7722 	 20.3875 	 41.83 	 
H 	 51.9118 	 18.7704 	 41.5964 	 
S 	 55.0043 	 19.5048 	 49.3612 	 
C 	 55.7846 	 18.2374 	 50.1856 	 
C 	 56.1391 	 17.31 	 49.2365 	 
C 	 55.7466 	 17.5296 	 47.8649 	 
C 	 55.0149 	 18.7407 	 47.7925 	 
H 	 56.7442 	 16.4387 	 49.5319 	 
C 	 56.1302 	 16.6637 	 46.6482 	 
H 	 57.0683 	 16.1574 	 46.9455 	 
H 	 56.4217 	 17.2368 	 45.768 	 
C 	 55.1897 	 15.5158 	 46.2704 	 
H 	 54.2959 	 15.888 	 45.7772 	 
H 	 54.895 	 15.0475 	 47.183 	 
C 	 55.8551 	 14.5717 	 45.221 	 
H 	 55.0898 	 13.9446 	 44.7935 	 
H 	 56.5195 	 13.8489 	 45.7081 	 
H 	 56.4251 	 15.0118 	 44.3808 	 
H 	 52.9188 	 22.3122 	 44.8785 	 
H 	 55.9572 	 18.0931 	 51.232 	 
