34

S 	 1.34087 	 -25.6036 	 84.9953 	 
C 	 2.49078 	 -26.858 	 84.4582 	 
C 	 3.70796 	 -26.3379 	 84.1419 	 
C 	 3.60573 	 -24.9245 	 83.9948 	 
C 	 2.38542 	 -24.3705 	 84.2936 	 
H 	 4.39543 	 -24.3124 	 83.6405 	 
C 	 4.95789 	 -27.0652 	 83.8035 	 
H 	 4.90854 	 -27.9277 	 84.5041 	 
H 	 5.81893 	 -26.4835 	 84.1326 	 
C 	 5.03183 	 -27.4959 	 82.3257 	 
H 	 4.21061 	 -28.0929 	 82.0225 	 
H 	 5.02802 	 -26.4632 	 81.8911 	 
C 	 6.32277 	 -28.1434 	 81.8909 	 
H 	 6.70007 	 -28.8154 	 82.5946 	 
H 	 6.2219 	 -28.6684 	 80.9434 	 
H 	 7.07778 	 -27.4375 	 81.6581 	 
S 	 1.93217 	 -22.1383 	 85.7601 	 
C 	 1.37585 	 -20.7352 	 84.941 	 
C 	 1.44416 	 -20.9073 	 83.5584 	 
C 	 1.61922 	 -22.2682 	 83.1722 	 
C 	 1.90342 	 -23.0209 	 84.2703 	 
H 	 1.31285 	 -20.0873 	 82.9805 	 
C 	 1.73284 	 -22.5966 	 81.6884 	 
H 	 2.33909 	 -23.5292 	 81.5238 	 
H 	 2.33409 	 -21.8982 	 81.1575 	 
C 	 0.361659 	 -22.7481 	 80.9304 	 
H 	 0.567528 	 -23.0593 	 79.872 	 
H 	 -0.0633557 	 -21.7436 	 80.9698 	 
C 	 -0.5575 	 -23.8137 	 81.4695 	 
H 	 -0.588504 	 -24.0051 	 82.5678 	 
H 	 -0.325129 	 -24.8051 	 81.0556 	 
H 	 -1.58325 	 -23.6655 	 81.2982 	 
H 	 2.41337 	 -27.9031 	 84.5889 	 
H 	 1.42211 	 -19.7572 	 85.3163 	 
