34

S 	 7.08608 	 27.5408 	 69.6387 	 
C 	 6.08056 	 26.6247 	 68.6078 	 
C 	 5.57052 	 27.3995 	 67.5529 	 
C 	 6.10484 	 28.7214 	 67.4738 	 
C 	 6.90334 	 29.0104 	 68.6289 	 
H 	 5.986 	 29.4736 	 66.6944 	 
C 	 4.73497 	 26.9314 	 66.3929 	 
H 	 4.24975 	 27.8794 	 66.0861 	 
H 	 3.89695 	 26.3364 	 66.7476 	 
C 	 5.60825 	 26.1531 	 65.416 	 
H 	 6.46098 	 26.75 	 65.1166 	 
H 	 6.05082 	 25.199 	 65.7816 	 
C 	 4.97147 	 25.7871 	 64.1465 	 
H 	 4.01098 	 25.3055 	 64.2685 	 
H 	 4.91993 	 26.5739 	 63.373 	 
H 	 5.61627 	 25.0903 	 63.6096 	 
S 	 9.32576 	 30.0154 	 68.5396 	 
C 	 9.63765 	 31.6931 	 68.7966 	 
C 	 8.47734 	 32.3242 	 69.2532 	 
C 	 7.33332 	 31.4988 	 69.2847 	 
C 	 7.65735 	 30.2134 	 68.8366 	 
H 	 8.48609 	 33.3436 	 69.5334 	 
C 	 6.02158 	 31.9717 	 69.7538 	 
H 	 5.96573 	 32.3233 	 70.742 	 
H 	 5.46819 	 31.0157 	 69.8962 	 
C 	 5.3006 	 32.8254 	 68.6759 	 
H 	 5.25037 	 32.3719 	 67.6967 	 
H 	 5.91038 	 33.7439 	 68.6257 	 
C 	 3.90442 	 33.0709 	 69.2386 	 
H 	 3.3496 	 32.0667 	 69.1671 	 
H 	 3.44421 	 33.7877 	 68.5183 	 
H 	 3.87323 	 33.5428 	 70.2168 	 
H 	 5.83472 	 25.6109 	 68.649 	 
H 	 10.5515 	 32.1383 	 68.6588 	 
