34

S 	 -45.5201 	 22.3379 	 88.5379 	 
C 	 -44.4029 	 22.2242 	 89.9201 	 
C 	 -43.086 	 22.3592 	 89.4475 	 
C 	 -43.0503 	 22.5178 	 88.0241 	 
C 	 -44.2088 	 22.2229 	 87.3617 	 
H 	 -42.1622 	 22.63 	 87.4053 	 
C 	 -41.8494 	 22.1731 	 90.2975 	 
H 	 -41.822 	 22.7912 	 91.1461 	 
H 	 -40.9428 	 22.4275 	 89.706 	 
C 	 -41.6284 	 20.676 	 90.6701 	 
H 	 -40.7655 	 20.6855 	 91.3741 	 
H 	 -42.5082 	 20.3125 	 91.2224 	 
C 	 -41.1368 	 19.7938 	 89.429 	 
H 	 -40.773 	 18.9147 	 89.8551 	 
H 	 -42.076 	 19.6517 	 88.792 	 
H 	 -40.3437 	 20.1714 	 88.85 	 
S 	 -45.749 	 23.3223 	 85.2987 	 
C 	 -45.6217 	 22.5114 	 83.6867 	 
C 	 -44.4706 	 21.7659 	 83.5734 	 
C 	 -43.8195 	 21.5372 	 84.8367 	 
C 	 -44.5156 	 22.0825 	 85.9036 	 
H 	 -44.263 	 21.4833 	 82.5905 	 
C 	 -42.5297 	 20.7413 	 84.8932 	 
H 	 -42.879 	 19.7455 	 84.8509 	 
H 	 -42.2759 	 20.9588 	 85.9481 	 
C 	 -41.4005 	 21.1533 	 83.9265 	 
H 	 -41.1885 	 22.1971 	 84.0869 	 
H 	 -41.8362 	 21.0599 	 82.946 	 
C 	 -40.1533 	 20.3142 	 84.0897 	 
H 	 -40.3265 	 19.195 	 83.9353 	 
H 	 -39.8644 	 20.4512 	 85.1424 	 
H 	 -39.4424 	 20.689 	 83.3096 	 
H 	 -44.6443 	 22.1156 	 90.9972 	 
H 	 -46.2851 	 22.7093 	 82.8732 	 
