34

S 	 -14.0684 	 33.7555 	 36.9571 	 
C 	 -13.2508 	 34.5879 	 35.6503 	 
C 	 -14.0869 	 34.9019 	 34.5836 	 
C 	 -15.3704 	 34.24 	 34.7377 	 
C 	 -15.4655 	 33.5895 	 35.9267 	 
H 	 -16.1915 	 34.2699 	 34.0733 	 
C 	 -13.8008 	 36.0051 	 33.549 	 
H 	 -13.8755 	 35.5083 	 32.5067 	 
H 	 -12.6814 	 36.16 	 33.6619 	 
C 	 -14.545 	 37.3027 	 33.4966 	 
H 	 -15.616 	 37.1007 	 33.4616 	 
H 	 -14.4996 	 37.7994 	 34.4101 	 
C 	 -14.0772 	 38.1304 	 32.2339 	 
H 	 -13.0003 	 38.346 	 32.2816 	 
H 	 -14.2546 	 37.7233 	 31.2674 	 
H 	 -14.4845 	 39.1989 	 32.1374 	 
S 	 -16.7376 	 32.448 	 38.147 	 
C 	 -17.9477 	 31.2367 	 37.9147 	 
C 	 -18.259 	 31.0095 	 36.5936 	 
C 	 -17.5297 	 31.8795 	 35.742 	 
C 	 -16.6087 	 32.6685 	 36.3838 	 
H 	 -18.9661 	 30.2431 	 36.3083 	 
C 	 -17.6727 	 31.6849 	 34.2522 	 
H 	 -17.6668 	 30.5331 	 34.1721 	 
H 	 -16.7522 	 32.0838 	 33.7386 	 
C 	 -18.9448 	 32.3233 	 33.6331 	 
H 	 -19.7991 	 31.9248 	 34.0779 	 
H 	 -18.8056 	 32.1026 	 32.5969 	 
C 	 -19.1193 	 33.7945 	 33.7983 	 
H 	 -19.9586 	 34.0924 	 33.2863 	 
H 	 -18.3362 	 34.2425 	 33.2263 	 
H 	 -19.2716 	 34.2041 	 34.8074 	 
H 	 -12.3709 	 35.1475 	 35.8267 	 
H 	 -18.4959 	 30.737 	 38.6913 	 
