34

S 	 -49.748 	 36.2 	 109.102 	 
C 	 -48.9304 	 37.6666 	 108.617 	 
C 	 -49.5439 	 38.25 	 107.488 	 
C 	 -50.7627 	 37.5553 	 107.186 	 
C 	 -50.9941 	 36.3836 	 107.941 	 
H 	 -51.458 	 37.849 	 106.359 	 
C 	 -48.9963 	 39.405 	 106.554 	 
H 	 -49.6033 	 40.2455 	 106.721 	 
H 	 -49.0921 	 39.0858 	 105.48 	 
C 	 -47.5368 	 39.8879 	 106.727 	 
H 	 -47.339 	 40.2804 	 107.791 	 
H 	 -46.8973 	 39.0526 	 106.569 	 
C 	 -47.0567 	 40.9469 	 105.72 	 
H 	 -47.1123 	 40.5423 	 104.71 	 
H 	 -47.7173 	 41.8879 	 105.708 	 
H 	 -46.0096 	 41.2291 	 105.834 	 
S 	 -52.4327 	 34.5261 	 106.556 	 
C 	 -53.9102 	 33.8149 	 107.224 	 
C 	 -54.21 	 34.4181 	 108.413 	 
C 	 -53.2282 	 35.3647 	 108.838 	 
C 	 -52.2149 	 35.5873 	 107.933 	 
H 	 -55.1457 	 34.198 	 108.905 	 
C 	 -53.4153 	 36.2301 	 110.109 	 
H 	 -52.4591 	 36.7285 	 110.367 	 
H 	 -53.5037 	 35.38 	 110.791 	 
C 	 -54.6754 	 37.1394 	 110.263 	 
H 	 -54.4934 	 37.6195 	 111.22 	 
H 	 -55.6824 	 36.5669 	 110.283 	 
C 	 -54.7794 	 38.3583 	 109.339 	 
H 	 -53.9954 	 39.0348 	 109.482 	 
H 	 -55.6502 	 38.897 	 109.636 	 
H 	 -54.8029 	 38.1502 	 108.329 	 
H 	 -47.9452 	 37.9989 	 108.956 	 
H 	 -54.5831 	 33.1067 	 106.751 	 
