34

S 	 -48.1891 	 29.3984 	 90.246 	 
C 	 -49.7557 	 29.0806 	 90.9223 	 
C 	 -50.7397 	 29.934 	 90.4763 	 
C 	 -50.2378 	 30.8266 	 89.5551 	 
C 	 -48.8494 	 30.763 	 89.4094 	 
H 	 -50.9397 	 31.4549 	 89.026 	 
C 	 -52.1217 	 30.0196 	 90.9024 	 
H 	 -52.4427 	 31.0432 	 90.8455 	 
H 	 -52.2291 	 29.7051 	 91.9418 	 
C 	 -53.1219 	 29.1786 	 90.1498 	 
H 	 -52.989 	 29.1427 	 89.1314 	 
H 	 -52.9193 	 28.1874 	 90.6157 	 
C 	 -54.5324 	 29.6581 	 90.3069 	 
H 	 -55.0996 	 29.0329 	 89.5507 	 
H 	 -54.804 	 29.4006 	 91.3342 	 
H 	 -54.7803 	 30.6614 	 90.1021 	 
S 	 -47.4622 	 30.6461 	 87.0413 	 
C 	 -46.7594 	 32.0443 	 86.3932 	 
C 	 -46.8445 	 33.1161 	 87.2826 	 
C 	 -47.667 	 32.8565 	 88.4197 	 
C 	 -48.0171 	 31.5196 	 88.4356 	 
H 	 -46.4261 	 34.0323 	 86.8913 	 
C 	 -48.033 	 33.9032 	 89.4827 	 
H 	 -47.0724 	 34.1857 	 89.8819 	 
H 	 -48.5658 	 33.3201 	 90.2741 	 
C 	 -48.7116 	 35.2619 	 88.9668 	 
H 	 -49.36 	 35.1097 	 88.1175 	 
H 	 -47.9208 	 35.8935 	 88.4172 	 
C 	 -49.317 	 36.0196 	 90.1872 	 
H 	 -49.9424 	 35.341 	 90.8106 	 
H 	 -49.9137 	 36.87 	 89.8819 	 
H 	 -48.5373 	 36.3985 	 90.7997 	 
H 	 -49.8456 	 28.1708 	 91.5678 	 
H 	 -46.2867 	 32.1274 	 85.4294 	 
