34

S 	 8.05841 	 -14.2608 	 60.8335 	 
C 	 8.17146 	 -12.5388 	 60.6584 	 
C 	 7.1156 	 -11.875 	 61.1746 	 
C 	 6.1511 	 -12.7576 	 61.8403 	 
C 	 6.486 	 -14.1174 	 61.705 	 
H 	 5.2499 	 -12.485 	 62.3483 	 
C 	 6.95284 	 -10.4042 	 61.3646 	 
H 	 5.93989 	 -10.1802 	 61.604 	 
H 	 7.12772 	 -9.88651 	 60.3512 	 
C 	 7.96778 	 -9.64557 	 62.349 	 
H 	 9.00097 	 -9.81056 	 61.951 	 
H 	 7.75867 	 -8.5968 	 62.1868 	 
C 	 7.95837 	 -10.1174 	 63.8345 	 
H 	 8.23276 	 -11.1752 	 63.9162 	 
H 	 8.58207 	 -9.61151 	 64.4956 	 
H 	 6.93842 	 -9.87453 	 64.2704 	 
S 	 6.438 	 -16.1932 	 63.4919 	 
C 	 5.09789 	 -17.2873 	 63.5166 	 
C 	 4.11432 	 -16.9209 	 62.6047 	 
C 	 4.4934 	 -15.7601 	 61.783 	 
C 	 5.71635 	 -15.28 	 62.1577 	 
H 	 3.27867 	 -17.5033 	 62.4598 	 
C 	 3.54122 	 -15.2713 	 60.6198 	 
H 	 3.57419 	 -14.2195 	 60.5817 	 
H 	 2.54936 	 -15.4245 	 61.0926 	 
C 	 3.66837 	 -16.0282 	 59.284 	 
H 	 3.2146 	 -16.9467 	 59.3457 	 
H 	 4.69886 	 -16.1251 	 59.1028 	 
C 	 2.88054 	 -15.2308 	 58.1667 	 
H 	 1.78559 	 -15.0078 	 58.3931 	 
H 	 2.8469 	 -15.703 	 57.1926 	 
H 	 3.28552 	 -14.3217 	 57.8614 	 
H 	 9.05791 	 -12.174 	 60.1786 	 
H 	 5.10553 	 -18.1905 	 64.1663 	 
