34

S 	 -50.4546 	 27.8505 	 93.7644 	 
C 	 -49.0179 	 26.9102 	 93.2863 	 
C 	 -49.392 	 25.702 	 92.7204 	 
C 	 -50.7499 	 25.7337 	 92.2619 	 
C 	 -51.489 	 26.7941 	 92.7934 	 
H 	 -51.2873 	 24.9806 	 91.6767 	 
C 	 -48.5492 	 24.4368 	 92.5066 	 
H 	 -47.591 	 24.8442 	 92.861 	 
H 	 -48.3681 	 24.2501 	 91.4338 	 
C 	 -48.8402 	 23.1588 	 93.2388 	 
H 	 -49.1133 	 23.3273 	 94.3125 	 
H 	 -49.7402 	 22.6754 	 92.883 	 
C 	 -47.7003 	 22.0935 	 93.2955 	 
H 	 -48.1258 	 21.2629 	 93.7571 	 
H 	 -47.5139 	 21.8028 	 92.2459 	 
H 	 -46.8404 	 22.3977 	 93.7366 	 
S 	 -53.2494 	 28.8131 	 92.4392 	 
C 	 -54.936 	 28.4394 	 92.3543 	 
C 	 -55.1147 	 27.0808 	 92.2739 	 
C 	 -53.9781 	 26.2481 	 92.5311 	 
C 	 -52.8437 	 27.0792 	 92.5713 	 
H 	 -56.0599 	 26.6347 	 92.0668 	 
C 	 -54.0809 	 24.6663 	 92.6606 	 
H 	 -54.8757 	 24.4776 	 93.3398 	 
H 	 -53.1663 	 24.2581 	 93.1235 	 
C 	 -54.4263 	 23.9537 	 91.3447 	 
H 	 -53.7267 	 24.2422 	 90.5364 	 
H 	 -55.4656 	 24.217 	 91.108 	 
C 	 -54.4452 	 22.4474 	 91.2627 	 
H 	 -54.536 	 22.0168 	 90.2797 	 
H 	 -55.186 	 22.0747 	 91.9519 	 
H 	 -53.526 	 22.0832 	 91.7042 	 
H 	 -48.0347 	 27.1637 	 93.5374 	 
H 	 -55.67 	 29.1235 	 92.2015 	 
