34

S 	 -16.6407 	 31.0639 	 36.7967 	 
C 	 -16.5713 	 32.6147 	 37.6369 	 
C 	 -17.3536 	 33.547 	 37.0077 	 
C 	 -17.9901 	 33.1271 	 35.7817 	 
C 	 -17.5623 	 31.8705 	 35.4572 	 
H 	 -18.7157 	 33.6809 	 35.1922 	 
C 	 -17.6978 	 34.8538 	 37.7074 	 
H 	 -17.4312 	 34.7994 	 38.7796 	 
H 	 -18.7758 	 34.9094 	 37.736 	 
C 	 -17.016 	 36.1719 	 37.1158 	 
H 	 -15.9782 	 36.2131 	 37.3789 	 
H 	 -17.0322 	 36.3092 	 36.0352 	 
C 	 -17.7586 	 37.396 	 37.5626 	 
H 	 -18.8304 	 37.3765 	 37.3001 	 
H 	 -17.6072 	 37.4269 	 38.6573 	 
H 	 -17.495 	 38.2752 	 37.0854 	 
S 	 -18.42 	 29.5322 	 34.3668 	 
C 	 -18.371 	 29.3513 	 32.626 	 
C 	 -17.8906 	 30.4686 	 31.9987 	 
C 	 -17.566 	 31.5115 	 32.9007 	 
C 	 -17.7831 	 31.1659 	 34.211 	 
H 	 -17.732 	 30.5155 	 30.9014 	 
C 	 -16.8868 	 32.7505 	 32.4269 	 
H 	 -15.9773 	 32.3423 	 31.9211 	 
H 	 -16.39 	 33.1948 	 33.3394 	 
C 	 -17.6414 	 33.6169 	 31.4003 	 
H 	 -18.1782 	 33.0613 	 30.6577 	 
H 	 -16.8671 	 34.1486 	 30.8826 	 
C 	 -18.6422 	 34.5804 	 32.1078 	 
H 	 -19.3492 	 35.0391 	 31.4345 	 
H 	 -18.2974 	 35.3086 	 32.7505 	 
H 	 -19.3741 	 34.1055 	 32.6946 	 
H 	 -16.1051 	 32.7527 	 38.6401 	 
H 	 -18.5932 	 28.4276 	 32.0204 	 
