34

S 	 7.89418 	 25.9117 	 61.8197 	 
C 	 8.513 	 24.3936 	 62.3653 	 
C 	 7.71038 	 23.8661 	 63.3502 	 
C 	 6.56959 	 24.6962 	 63.6363 	 
C 	 6.51854 	 25.8102 	 62.8589 	 
H 	 5.79856 	 24.4676 	 64.3279 	 
C 	 7.89839 	 22.4877 	 63.9848 	 
H 	 8.78677 	 22.5319 	 64.5818 	 
H 	 8.07155 	 21.8256 	 63.0938 	 
C 	 6.69765 	 21.8133 	 64.7778 	 
H 	 7.0689 	 20.9577 	 65.2472 	 
H 	 6.3183 	 22.5588 	 65.4949 	 
C 	 5.59392 	 21.4493 	 63.7794 	 
H 	 4.58432 	 21.1476 	 64.1397 	 
H 	 5.37458 	 22.2304 	 63.0897 	 
H 	 5.82358 	 20.6089 	 63.145 	 
S 	 5.10665 	 28.0881 	 63.6668 	 
C 	 3.41769 	 28.3342 	 63.1756 	 
C 	 3.05842 	 27.3025 	 62.3571 	 
C 	 4.05675 	 26.26 	 62.1907 	 
C 	 5.27953 	 26.553 	 62.7563 	 
H 	 2.09004 	 27.2841 	 61.9994 	 
C 	 3.79477 	 24.9116 	 61.4585 	 
H 	 4.80817 	 24.5868 	 61.1933 	 
H 	 3.19336 	 25.1418 	 60.672 	 
C 	 2.94301 	 23.9095 	 62.2384 	 
H 	 2.06847 	 24.4771 	 62.6566 	 
H 	 3.44994 	 23.6933 	 63.2002 	 
C 	 2.58546 	 22.6971 	 61.3095 	 
H 	 2.10803 	 21.9169 	 61.9363 	 
H 	 3.48117 	 22.3564 	 60.8412 	 
H 	 1.90093 	 22.9673 	 60.5386 	 
H 	 9.41562 	 24.0202 	 61.9023 	 
H 	 2.73453 	 29.1691 	 63.4281 	 
