34

S 	 -40.5112 	 39.3314 	 94.5885 	 
C 	 -42.1878 	 39.5811 	 94.1669 	 
C 	 -43.0832 	 39.0975 	 95.153 	 
C 	 -42.4048 	 38.5385 	 96.2685 	 
C 	 -41.0491 	 38.5242 	 96.1165 	 
H 	 -42.9798 	 38.1227 	 97.0777 	 
C 	 -44.5576 	 39.1275 	 94.9767 	 
H 	 -45.1196 	 38.2294 	 94.8181 	 
H 	 -44.729 	 39.5628 	 93.956 	 
C 	 -45.2725 	 39.9391 	 96.0373 	 
H 	 -45.1991 	 39.3751 	 96.9573 	 
H 	 -44.7843 	 40.9156 	 96.1709 	 
C 	 -46.8001 	 40.0541 	 95.8962 	 
H 	 -47.153 	 40.5103 	 94.9745 	 
H 	 -47.2902 	 39.0939 	 96.0748 	 
H 	 -47.243 	 40.663 	 96.6424 	 
S 	 -39.0848 	 36.4977 	 96.6238 	 
C 	 -38.1788 	 36.5534 	 98.0995 	 
C 	 -38.5295 	 37.6281 	 98.884 	 
C 	 -39.5547 	 38.4698 	 98.2724 	 
C 	 -40.0183 	 37.9771 	 97.0405 	 
H 	 -38.0783 	 37.7809 	 99.8748 	 
C 	 -40.1636 	 39.6739 	 99.0696 	 
H 	 -40.8137 	 39.0912 	 99.6952 	 
H 	 -40.717 	 40.3783 	 98.4688 	 
C 	 -39.1009 	 40.5 	 99.8602 	 
H 	 -38.2024 	 40.3858 	 99.2092 	 
H 	 -38.9672 	 40.2049 	 100.865 	 
C 	 -39.5988 	 42.0016 	 100.04 	 
H 	 -39.9414 	 42.4313 	 99.1319 	 
H 	 -38.693 	 42.5676 	 100.391 	 
H 	 -40.3558 	 42.073 	 100.787 	 
H 	 -42.5817 	 39.9392 	 93.2477 	 
H 	 -37.4377 	 35.7673 	 98.4681 	 
