34

S 	 66.2219 	 26.7801 	 73.6015 	 
C 	 65.7547 	 25.9567 	 72.1367 	 
C 	 66.8365 	 25.5624 	 71.3964 	 
C 	 68.0319 	 25.9426 	 72.0411 	 
C 	 67.9122 	 26.5449 	 73.2433 	 
H 	 69.0036 	 25.707 	 71.6046 	 
C 	 66.7765 	 24.8852 	 70.0636 	 
H 	 65.8185 	 24.3316 	 69.9203 	 
H 	 67.4583 	 24.0459 	 70.2993 	 
C 	 67.2553 	 25.7434 	 68.8002 	 
H 	 66.5734 	 26.6252 	 68.811 	 
H 	 68.264 	 26.0647 	 68.8981 	 
C 	 67.2128 	 24.9002 	 67.4813 	 
H 	 67.7499 	 23.9756 	 67.685 	 
H 	 66.254 	 24.6792 	 67.0648 	 
H 	 67.7841 	 25.5093 	 66.7118 	 
S 	 69.045 	 28.8685 	 74.0032 	 
C 	 70.4452 	 28.9372 	 75.0166 	 
C 	 70.8881 	 27.6948 	 75.3461 	 
C 	 69.9932 	 26.6809 	 74.8408 	 
C 	 68.9459 	 27.156 	 74.0965 	 
H 	 71.8093 	 27.4667 	 75.8663 	 
C 	 70.1168 	 25.218 	 75.0752 	 
H 	 69.5049 	 24.5883 	 74.3968 	 
H 	 69.77 	 25.1021 	 76.0654 	 
C 	 71.4557 	 24.5279 	 74.8757 	 
H 	 71.6738 	 23.7886 	 75.6007 	 
H 	 72.1846 	 25.3192 	 75.1227 	 
C 	 71.667 	 24.3459 	 73.3781 	 
H 	 72.7498 	 24.1122 	 73.3073 	 
H 	 71.5795 	 25.2897 	 72.8609 	 
H 	 70.9437 	 23.6563 	 72.8557 	 
H 	 64.7361 	 25.9002 	 71.7429 	 
H 	 70.9721 	 29.8718 	 75.0314 	 
