34

S 	 -97.6532 	 42.7412 	 125.801 	 
C 	 -97.9837 	 41.6571 	 127.086 	 
C 	 -96.8011 	 41.2819 	 127.732 	 
C 	 -95.6496 	 41.8468 	 127.16 	 
C 	 -95.8304 	 42.5899 	 126.063 	 
H 	 -94.6156 	 41.695 	 127.466 	 
C 	 -96.6934 	 40.4313 	 128.894 	 
H 	 -97.2378 	 41.0081 	 129.638 	 
H 	 -95.684 	 40.4162 	 129.262 	 
C 	 -97.3785 	 39.0803 	 128.762 	 
H 	 -97.4065 	 38.6981 	 129.772 	 
H 	 -98.3847 	 39.3077 	 128.421 	 
C 	 -96.6676 	 38.0339 	 127.833 	 
H 	 -95.7443 	 37.5668 	 128.235 	 
H 	 -97.3426 	 37.1676 	 127.781 	 
H 	 -96.6103 	 38.345 	 126.845 	 
S 	 -93.3694 	 42.3026 	 124.883 	 
C 	 -92.8195 	 43.6059 	 123.937 	 
C 	 -93.6596 	 44.6788 	 123.859 	 
C 	 -94.8505 	 44.5315 	 124.692 	 
C 	 -94.8236 	 43.2652 	 125.227 	 
H 	 -93.4058 	 45.5608 	 123.34 	 
C 	 -95.8022 	 45.6853 	 124.957 	 
H 	 -95.2206 	 46.5587 	 125.386 	 
H 	 -96.508 	 45.3455 	 125.659 	 
C 	 -96.5192 	 46.2254 	 123.673 	 
H 	 -96.6997 	 45.349 	 123.032 	 
H 	 -95.8476 	 46.8386 	 123.178 	 
C 	 -97.9248 	 46.9355 	 123.854 	 
H 	 -98.6081 	 46.3868 	 124.53 	 
H 	 -98.4476 	 47.1962 	 122.976 	 
H 	 -97.7468 	 47.7533 	 124.582 	 
H 	 -98.9104 	 41.2597 	 127.341 	 
H 	 -91.8555 	 43.6376 	 123.345 	 
