34

S 	 5.81745 	 -16.7386 	 50.828 	 
C 	 4.07285 	 -16.7735 	 50.5808 	 
C 	 3.40331 	 -16.6502 	 51.7398 	 
C 	 4.27327 	 -16.6005 	 52.8556 	 
C 	 5.63025 	 -16.7013 	 52.5458 	 
H 	 4.09892 	 -16.5624 	 53.9297 	 
C 	 1.91158 	 -16.6719 	 51.9354 	 
H 	 1.60984 	 -17.1766 	 52.8861 	 
H 	 1.58744 	 -17.2961 	 51.0988 	 
C 	 1.32814 	 -15.2823 	 51.8611 	 
H 	 0.335279 	 -15.3413 	 52.2669 	 
H 	 1.83376 	 -14.5999 	 52.6118 	 
C 	 1.32471 	 -14.5469 	 50.5485 	 
H 	 0.542818 	 -14.9865 	 49.955 	 
H 	 1.08298 	 -13.5 	 50.6906 	 
H 	 2.31218 	 -14.5307 	 50.058 	 
S 	 7.89222 	 -17.9843 	 53.3609 	 
C 	 9.04091 	 -17.1151 	 54.3447 	 
C 	 8.47714 	 -15.9482 	 54.776 	 
C 	 7.19452 	 -15.5777 	 54.1828 	 
C 	 6.74236 	 -16.6364 	 53.3805 	 
H 	 9.07142 	 -15.4704 	 55.6111 	 
C 	 6.4704 	 -14.3158 	 54.5869 	 
H 	 6.84664 	 -14.0507 	 55.576 	 
H 	 5.43648 	 -14.5044 	 54.7289 	 
C 	 6.65497 	 -13.1304 	 53.6612 	 
H 	 6.0791 	 -13.2877 	 52.7534 	 
H 	 7.70221 	 -13.0803 	 53.4349 	 
C 	 6.1526 	 -11.8428 	 54.3182 	 
H 	 5.08481 	 -11.7885 	 54.3212 	 
H 	 6.48586 	 -10.8955 	 53.9548 	 
H 	 6.53662 	 -11.7045 	 55.3248 	 
H 	 3.63808 	 -16.9014 	 49.5676 	 
H 	 9.88887 	 -17.4936 	 54.8048 	 
