34

S 	 4.9145 	 -13.2491 	 57.0598 	 
C 	 5.14419 	 -12.4121 	 58.5596 	 
C 	 4.01676 	 -12.3809 	 59.3277 	 
C 	 2.93334 	 -13.0938 	 58.7265 	 
C 	 3.23443 	 -13.5165 	 57.4178 	 
H 	 1.98588 	 -13.1602 	 59.1812 	 
C 	 3.94147 	 -11.7831 	 60.7436 	 
H 	 3.45713 	 -10.8264 	 60.6872 	 
H 	 4.96004 	 -11.6112 	 61.1529 	 
C 	 3.38813 	 -12.695 	 61.8189 	 
H 	 3.5565 	 -12.1241 	 62.7112 	 
H 	 2.29934 	 -12.8381 	 61.6283 	 
C 	 3.94891 	 -14.1792 	 61.9039 	 
H 	 5.01521 	 -14.2462 	 61.9175 	 
H 	 3.55402 	 -14.7136 	 62.786 	 
H 	 3.51336 	 -14.7012 	 61.0195 	 
S 	 1.01269 	 -13.1523 	 55.8415 	 
C 	 0.395064 	 -14.4919 	 54.9364 	 
C 	 1.15617 	 -15.6231 	 55.1379 	 
C 	 2.20502 	 -15.4132 	 56.0524 	 
C 	 2.30303 	 -14.1612 	 56.5611 	 
H 	 0.968991 	 -16.6119 	 54.6526 	 
C 	 3.16964 	 -16.4896 	 56.4112 	 
H 	 2.57261 	 -17.3084 	 56.8339 	 
H 	 3.83081 	 -16.1495 	 57.2035 	 
C 	 4.12038 	 -16.9624 	 55.2866 	 
H 	 3.45377 	 -17.1928 	 54.4488 	 
H 	 4.60929 	 -17.8484 	 55.6801 	 
C 	 5.23972 	 -15.9896 	 54.9796 	 
H 	 5.91073 	 -15.8036 	 55.8237 	 
H 	 4.81238 	 -15.1535 	 54.6153 	 
H 	 5.83687 	 -16.4831 	 54.1562 	 
H 	 6.01665 	 -11.8535 	 58.8095 	 
H 	 -0.538388 	 -14.4324 	 54.3768 	 
