34

S 	 -4.64307 	 -16.2379 	 69.8633 	 
C 	 -4.9245 	 -17.0954 	 68.3502 	 
C 	 -5.53131 	 -16.2571 	 67.4528 	 
C 	 -5.55011 	 -14.8929 	 67.8552 	 
C 	 -5.02148 	 -14.6955 	 69.1445 	 
H 	 -5.84591 	 -14.0549 	 67.3017 	 
C 	 -5.86142 	 -16.7669 	 66.0589 	 
H 	 -5.19971 	 -17.6236 	 65.8164 	 
H 	 -5.65099 	 -16.0854 	 65.2654 	 
C 	 -7.36377 	 -17.2467 	 65.929 	 
H 	 -7.47332 	 -17.5652 	 64.8499 	 
H 	 -7.53762 	 -18.0065 	 66.6072 	 
C 	 -8.52301 	 -16.2505 	 66.2895 	 
H 	 -8.70907 	 -15.4159 	 65.6445 	 
H 	 -9.47977 	 -16.8588 	 66.3418 	 
H 	 -8.43139 	 -15.8201 	 67.2582 	 
S 	 -5.84019 	 -13.5093 	 71.4557 	 
C 	 -5.92815 	 -11.703 	 71.4533 	 
C 	 -5.46158 	 -11.1485 	 70.323 	 
C 	 -4.9094 	 -12.13 	 69.4521 	 
C 	 -5.15765 	 -13.4256 	 69.8593 	 
H 	 -5.37662 	 -10.1138 	 70.2649 	 
C 	 -4.51171 	 -11.8724 	 68.0481 	 
H 	 -5.34665 	 -12.0327 	 67.3099 	 
H 	 -3.76637 	 -12.5917 	 67.8327 	 
C 	 -4.01746 	 -10.5091 	 67.6753 	 
H 	 -3.25322 	 -10.1382 	 68.3423 	 
H 	 -4.79153 	 -9.73525 	 67.7825 	 
C 	 -3.36361 	 -10.4837 	 66.2754 	 
H 	 -2.51776 	 -11.1434 	 66.3225 	 
H 	 -3.13199 	 -9.51145 	 66.0501 	 
H 	 -4.00762 	 -10.8945 	 65.5555 	 
H 	 -4.81249 	 -18.1541 	 68.203 	 
H 	 -6.20389 	 -11.1704 	 72.3364 	 
