34

S 	 -57.6651 	 40.292 	 133.662 	 
C 	 -56.27 	 39.8602 	 134.593 	 
C 	 -56.5587 	 39.6584 	 135.893 	 
C 	 -57.9486 	 39.8744 	 136.201 	 
C 	 -58.682 	 40.3305 	 135.084 	 
H 	 -58.4716 	 39.7031 	 137.13 	 
C 	 -55.5806 	 39.0058 	 136.825 	 
H 	 -54.8256 	 38.4213 	 136.2 	 
H 	 -56.035 	 38.1122 	 137.326 	 
C 	 -54.8217 	 39.8679 	 137.758 	 
H 	 -54.4885 	 40.8092 	 137.262 	 
H 	 -55.4632 	 40.1725 	 138.569 	 
C 	 -53.5804 	 39.2435 	 138.522 	 
H 	 -53.0784 	 39.9911 	 139.162 	 
H 	 -53.953 	 38.3029 	 139.102 	 
H 	 -52.7606 	 38.8783 	 137.937 	 
S 	 -60.8668 	 41.5853 	 136.277 	 
C 	 -62.4707 	 41.3516 	 135.546 	 
C 	 -62.3807 	 40.6802 	 134.393 	 
C 	 -61.0687 	 40.1614 	 134.049 	 
C 	 -60.1368 	 40.5617 	 135.039 	 
H 	 -63.2661 	 40.5801 	 133.805 	 
C 	 -60.8186 	 39.4567 	 132.75 	 
H 	 -59.8774 	 38.9176 	 132.671 	 
H 	 -60.7445 	 40.2266 	 132.096 	 
C 	 -61.9739 	 38.5248 	 132.269 	 
H 	 -62.9816 	 38.9967 	 132.314 	 
H 	 -62.0764 	 37.7042 	 132.912 	 
C 	 -61.7289 	 38.0251 	 130.874 	 
H 	 -61.9284 	 38.862 	 130.217 	 
H 	 -62.4092 	 37.1844 	 130.676 	 
H 	 -60.6822 	 37.6929 	 130.774 	 
H 	 -55.2747 	 39.805 	 134.137 	 
H 	 -63.3834 	 41.9154 	 135.74 	 
