34

S 	 41.99 	 20.4038 	 44.3132 	 
C 	 40.7286 	 19.1615 	 44.2731 	 
C 	 40.0145 	 19.2324 	 43.0638 	 
C 	 40.5128 	 20.1758 	 42.1482 	 
C 	 41.6149 	 20.8993 	 42.6337 	 
H 	 40.2165 	 20.3276 	 41.0703 	 
C 	 38.8003 	 18.4335 	 42.7187 	 
H 	 38.2225 	 18.273 	 43.6508 	 
H 	 39.1567 	 17.4698 	 42.4128 	 
C 	 37.7955 	 18.9252 	 41.6294 	 
H 	 38.2686 	 19.0544 	 40.5786 	 
H 	 36.9433 	 18.2969 	 41.3717 	 
C 	 37.0804 	 20.1878 	 42.1297 	 
H 	 36.4675 	 20.6043 	 41.37 	 
H 	 36.5654 	 20.0416 	 43.0791 	 
H 	 37.7236 	 21.0678 	 42.3728 	 
S 	 43.4581 	 21.3262 	 40.6776 	 
C 	 44.214 	 22.8994 	 40.4289 	 
C 	 43.8079 	 23.8091 	 41.3411 	 
C 	 42.7383 	 23.3282 	 42.1796 	 
C 	 42.4383 	 21.9431 	 41.9744 	 
H 	 44.2198 	 24.8012 	 41.249 	 
C 	 42.0357 	 24.1465 	 43.2012 	 
H 	 42.7166 	 24.9312 	 43.6294 	 
H 	 41.5712 	 23.5167 	 43.9929 	 
C 	 40.7885 	 24.924 	 42.6778 	 
H 	 41.0682 	 25.4109 	 41.7597 	 
H 	 40.614 	 25.7458 	 43.3584 	 
C 	 39.5422 	 24.1169 	 42.3596 	 
H 	 38.8558 	 23.9909 	 43.1648 	 
H 	 39.8492 	 23.1021 	 42.1301 	 
H 	 38.8528 	 24.5748 	 41.646 	 
H 	 40.3265 	 18.544 	 45.1611 	 
H 	 44.7759 	 23.215 	 39.5684 	 
