34

S 	 -42.289 	 26.9312 	 76.9683 	 
C 	 -41.3804 	 28.324 	 77.626 	 
C 	 -40.2369 	 27.9248 	 78.3281 	 
C 	 -40.3012 	 26.5256 	 78.5768 	 
C 	 -41.266 	 25.8037 	 77.8747 	 
H 	 -39.5471 	 26.0505 	 79.1506 	 
C 	 -39.1631 	 28.9277 	 78.9512 	 
H 	 -39.6262 	 29.5041 	 79.7679 	 
H 	 -38.8379 	 29.6017 	 78.2223 	 
C 	 -37.9441 	 28.3158 	 79.6212 	 
H 	 -38.2411 	 27.3652 	 80.1793 	 
H 	 -37.2327 	 28.0234 	 78.9148 	 
C 	 -37.0943 	 29.396 	 80.4167 	 
H 	 -36.7888 	 30.145 	 79.6903 	 
H 	 -37.6621 	 29.8837 	 81.268 	 
H 	 -36.177 	 28.9672 	 80.8019 	 
S 	 -43.1919 	 23.8664 	 77.6704 	 
C 	 -42.7591 	 22.226 	 77.9109 	 
C 	 -41.4193 	 22.0774 	 78.2028 	 
C 	 -40.6948 	 23.2589 	 78.1639 	 
C 	 -41.5055 	 24.3221 	 77.8386 	 
H 	 -41.0032 	 21.1373 	 78.4461 	 
C 	 -39.173 	 23.3001 	 78.1974 	 
H 	 -38.7985 	 22.3056 	 78.1495 	 
H 	 -38.8532 	 23.6603 	 79.1853 	 
C 	 -38.4111 	 24.1413 	 77.1292 	 
H 	 -38.7655 	 25.1945 	 77.0339 	 
H 	 -38.5583 	 23.6148 	 76.1858 	 
C 	 -36.8847 	 23.9707 	 77.2729 	 
H 	 -36.6089 	 22.9001 	 77.0313 	 
H 	 -36.4487 	 24.3025 	 78.1961 	 
H 	 -36.478 	 24.4955 	 76.4019 	 
H 	 -41.6272 	 29.3162 	 77.3616 	 
H 	 -43.3194 	 21.3067 	 77.8316 	 
