34

S 	 -5.2969 	 76.8795 	 50.968 	 
C 	 -4.61029 	 77.6336 	 52.4033 	 
C 	 -3.31593 	 78.0011 	 52.2355 	 
C 	 -2.86834 	 77.7271 	 50.8545 	 
C 	 -3.82727 	 77.1266 	 50.0462 	 
H 	 -1.86096 	 77.9595 	 50.365 	 
C 	 -2.399 	 78.6678 	 53.2891 	 
H 	 -1.36032 	 78.2942 	 53.3439 	 
H 	 -2.79355 	 78.3651 	 54.2808 	 
C 	 -2.47877 	 80.187 	 53.3585 	 
H 	 -2.31405 	 80.7177 	 52.3992 	 
H 	 -3.50909 	 80.4117 	 53.5712 	 
C 	 -1.73147 	 80.797 	 54.528 	 
H 	 -0.653865 	 80.8569 	 54.4127 	 
H 	 -2.07782 	 81.8376 	 54.842 	 
H 	 -2.02035 	 80.3164 	 55.4151 	 
S 	 -2.09913 	 76.2739 	 48.1521 	 
C 	 -2.55654 	 76.1856 	 46.4567 	 
C 	 -3.80252 	 76.7414 	 46.2614 	 
C 	 -4.4623 	 77.0465 	 47.5069 	 
C 	 -3.64057 	 76.8387 	 48.6175 	 
H 	 -4.24672 	 76.7819 	 45.2548 	 
C 	 -5.90638 	 77.4883 	 47.5274 	 
H 	 -6.08336 	 78.1273 	 46.7181 	 
H 	 -6.04432 	 78.0091 	 48.4037 	 
C 	 -6.89641 	 76.3011 	 47.5181 	 
H 	 -6.50362 	 75.601 	 48.2672 	 
H 	 -6.91766 	 75.7958 	 46.4927 	 
C 	 -8.33501 	 76.6588 	 47.994 	 
H 	 -8.88233 	 75.8321 	 48.4156 	 
H 	 -8.94719 	 77.149 	 47.2787 	 
H 	 -8.305 	 77.2828 	 48.8668 	 
H 	 -5.12641 	 77.632 	 53.3585 	 
H 	 -1.84369 	 75.9857 	 45.621 	 
