34

S 	 -73.3037 	 41.7891 	 138.363 	 
C 	 -74.4307 	 41.9049 	 136.973 	 
C 	 -73.7344 	 41.7751 	 135.786 	 
C 	 -72.3604 	 41.6001 	 135.946 	 
C 	 -71.9432 	 41.6456 	 137.263 	 
H 	 -71.5939 	 41.4276 	 135.227 	 
C 	 -74.4826 	 41.5066 	 134.565 	 
H 	 -73.783 	 41.5963 	 133.718 	 
H 	 -75.1655 	 42.3542 	 134.268 	 
C 	 -75.1488 	 40.1139 	 134.375 	 
H 	 -74.4774 	 39.3701 	 134.711 	 
H 	 -76.0444 	 39.9534 	 135.077 	 
C 	 -75.7831 	 39.9443 	 133.002 	 
H 	 -76.1469 	 38.9174 	 132.941 	 
H 	 -76.6018 	 40.6874 	 132.733 	 
H 	 -74.9521 	 39.8803 	 132.233 	 
S 	 -70.3839 	 39.9116 	 138.528 	 
C 	 -68.6364 	 40.2115 	 138.759 	 
C 	 -68.2731 	 41.324 	 138.078 	 
C 	 -69.4063 	 41.9216 	 137.408 	 
C 	 -70.6033 	 41.3628 	 137.729 	 
H 	 -67.2581 	 41.5923 	 138.012 	 
C 	 -69.1862 	 43.1377 	 136.535 	 
H 	 -70.1748 	 43.584 	 136.353 	 
H 	 -68.8473 	 42.7693 	 135.583 	 
C 	 -68.2998 	 44.282 	 137.073 	 
H 	 -67.2029 	 44.0243 	 136.957 	 
H 	 -68.4925 	 44.4564 	 138.057 	 
C 	 -68.4923 	 45.5665 	 136.191 	 
H 	 -68.5324 	 45.3627 	 135.124 	 
H 	 -67.695 	 46.2305 	 136.313 	 
H 	 -69.4413 	 46.1124 	 136.222 	 
H 	 -75.5194 	 41.9175 	 137.004 	 
H 	 -67.8928 	 39.525 	 139.16 	 
