34

S 	 -30.7433 	 69.4297 	 100.786 	 
C 	 -31.3745 	 67.7373 	 100.767 	 
C 	 -31.1265 	 67.0834 	 101.951 	 
C 	 -30.4073 	 67.9622 	 102.881 	 
C 	 -30.153 	 69.2411 	 102.415 	 
H 	 -30.1275 	 67.7022 	 103.866 	 
C 	 -31.6339 	 65.7171 	 102.315 	 
H 	 -32.5932 	 65.5373 	 101.889 	 
H 	 -31.8126 	 65.6901 	 103.439 	 
C 	 -30.7037 	 64.5527 	 101.969 	 
H 	 -29.7579 	 64.667 	 102.54 	 
H 	 -31.2495 	 63.7313 	 102.448 	 
C 	 -30.5372 	 64.2114 	 100.49 	 
H 	 -31.5357 	 64.134 	 100.133 	 
H 	 -30.0889 	 65.1257 	 100.086 	 
H 	 -30.0244 	 63.2723 	 100.288 	 
S 	 -30.6341 	 71.6465 	 103.539 	 
C 	 -29.4244 	 72.5456 	 104.433 	 
C 	 -28.3176 	 71.7368 	 104.561 	 
C 	 -28.4579 	 70.4097 	 103.974 	 
C 	 -29.564 	 70.3491 	 103.178 	 
H 	 -27.5264 	 72.0905 	 105.191 	 
C 	 -27.2465 	 69.4567 	 103.987 	 
H 	 -27.6749 	 68.4638 	 103.97 	 
H 	 -26.6408 	 69.5084 	 104.874 	 
C 	 -26.2134 	 69.4721 	 102.817 	 
H 	 -25.6747 	 68.5876 	 103.009 	 
H 	 -25.5229 	 70.3216 	 102.841 	 
C 	 -26.8253 	 69.4088 	 101.36 	 
H 	 -27.4806 	 70.3047 	 101.156 	 
H 	 -27.3723 	 68.5265 	 101.132 	 
H 	 -26.0549 	 69.4802 	 100.584 	 
H 	 -31.9203 	 67.3482 	 99.9599 	 
H 	 -29.5612 	 73.6047 	 104.865 	 
