34

S 	 0.0474363 	 -18.3293 	 84.8802 	 
C 	 -0.42014 	 -19.3746 	 83.5851 	 
C 	 0.637374 	 -19.9964 	 83.0416 	 
C 	 1.90936 	 -19.5347 	 83.5366 	 
C 	 1.75293 	 -18.5986 	 84.5151 	 
H 	 2.89957 	 -19.8514 	 83.2379 	 
C 	 0.463705 	 -21.0934 	 81.998 	 
H 	 1.05371 	 -20.7405 	 81.1478 	 
H 	 -0.618727 	 -21.1812 	 81.7681 	 
C 	 0.925622 	 -22.4473 	 82.4802 	 
H 	 0.788254 	 -23.1119 	 81.6038 	 
H 	 1.9941 	 -22.365 	 82.7454 	 
C 	 0.154052 	 -22.8554 	 83.7254 	 
H 	 0.586467 	 -22.533 	 84.702 	 
H 	 -0.949616 	 -22.6216 	 83.7124 	 
H 	 0.180538 	 -23.9671 	 83.7105 	 
S 	 3.22833 	 -18.8633 	 86.8952 	 
C 	 4.80719 	 -18.1111 	 86.9915 	 
C 	 4.95903 	 -17.2034 	 85.9369 	 
C 	 3.8962 	 -17.248 	 84.9563 	 
C 	 2.87622 	 -18.1434 	 85.2817 	 
H 	 5.79756 	 -16.5232 	 85.889 	 
C 	 3.99211 	 -16.4301 	 83.6703 	 
H 	 3.88026 	 -15.4656 	 84.0469 	 
H 	 3.10214 	 -16.6156 	 83.0332 	 
C 	 5.23213 	 -16.5815 	 82.7673 	 
H 	 6.14867 	 -16.6084 	 83.3 	 
H 	 5.29265 	 -15.6528 	 82.1461 	 
C 	 5.27623 	 -17.9066 	 81.8273 	 
H 	 5.05927 	 -17.7248 	 80.7652 	 
H 	 4.60712 	 -18.6097 	 82.2421 	 
H 	 6.23322 	 -18.3201 	 81.7739 	 
H 	 -1.42603 	 -19.4202 	 83.1914 	 
H 	 5.62144 	 -18.2682 	 87.6938 	 
