34

S 	 -93.3192 	 55.189 	 130.505 	 
C 	 -92.6954 	 53.7229 	 131.229 	 
C 	 -91.3476 	 53.5791 	 130.959 	 
C 	 -90.8514 	 54.5577 	 130.057 	 
C 	 -91.8015 	 55.4511 	 129.619 	 
H 	 -89.8306 	 54.6482 	 129.789 	 
C 	 -90.4914 	 52.4925 	 131.527 	 
H 	 -90.8097 	 52.1668 	 132.5 	 
H 	 -89.4899 	 52.9453 	 131.676 	 
C 	 -90.3781 	 51.211 	 130.717 	 
H 	 -91.4159 	 50.8601 	 130.589 	 
H 	 -90.0029 	 51.3891 	 129.654 	 
C 	 -89.4549 	 50.1468 	 131.307 	 
H 	 -89.0023 	 49.5817 	 130.492 	 
H 	 -88.596 	 50.5813 	 131.831 	 
H 	 -89.9593 	 49.5097 	 131.975 	 
S 	 -92.0411 	 58.1111 	 129.476 	 
C 	 -91.3772 	 59.0521 	 128.23 	 
C 	 -90.9007 	 58.2633 	 127.202 	 
C 	 -90.9983 	 56.8714 	 127.519 	 
C 	 -91.5609 	 56.6277 	 128.757 	 
H 	 -90.5749 	 58.8075 	 126.3 	 
C 	 -90.4625 	 55.8457 	 126.625 	 
H 	 -91.3615 	 55.5229 	 126.18 	 
H 	 -90.0865 	 55.077 	 127.244 	 
C 	 -89.3962 	 56.3032 	 125.626 	 
H 	 -88.4763 	 56.5163 	 126.232 	 
H 	 -89.5605 	 57.295 	 125.161 	 
C 	 -89.0683 	 55.3778 	 124.494 	 
H 	 -88.2928 	 55.8512 	 123.904 	 
H 	 -89.8878 	 55.3968 	 123.801 	 
H 	 -88.8367 	 54.2958 	 124.722 	 
H 	 -93.264 	 53.176 	 131.963 	 
H 	 -91.4869 	 60.1522 	 128.245 	 
