34

S 	 -41.4232 	 35.1335 	 83.6145 	 
C 	 -40.8546 	 36.5018 	 82.6604 	 
C 	 -40.5677 	 36.1089 	 81.3423 	 
C 	 -40.688 	 34.7009 	 81.1693 	 
C 	 -41.2215 	 34.0576 	 82.267 	 
H 	 -40.1868 	 34.1249 	 80.3783 	 
C 	 -39.8546 	 37.0021 	 80.3147 	 
H 	 -39.2032 	 36.3754 	 79.6534 	 
H 	 -39.0411 	 37.4774 	 80.935 	 
C 	 -40.6785 	 38.0314 	 79.5255 	 
H 	 -41.5474 	 37.5484 	 79.0166 	 
H 	 -41.248 	 38.5831 	 80.2554 	 
C 	 -39.8559 	 38.8806 	 78.5207 	 
H 	 -39.1578 	 39.5674 	 78.9566 	 
H 	 -39.3295 	 38.2445 	 77.7974 	 
H 	 -40.592 	 39.4709 	 78.0273 	 
S 	 -39.7511 	 31.6501 	 82.3256 	 
C 	 -40.6244 	 30.1373 	 82.7965 	 
C 	 -41.9977 	 30.3561 	 82.6647 	 
C 	 -42.3127 	 31.6962 	 82.4592 	 
C 	 -41.2693 	 32.5773 	 82.3827 	 
H 	 -42.7076 	 29.6719 	 82.9238 	 
C 	 -43.7474 	 32.0601 	 82.2832 	 
H 	 -43.6633 	 33.1534 	 82.218 	 
H 	 -44.2323 	 31.8581 	 83.2312 	 
C 	 -44.418 	 31.5591 	 80.9987 	 
H 	 -45.4713 	 31.7234 	 81.1932 	 
H 	 -44.2402 	 30.5283 	 81.0874 	 
C 	 -43.8873 	 32.0934 	 79.7001 	 
H 	 -43.1128 	 31.405 	 79.1675 	 
H 	 -43.5133 	 33.1285 	 79.6179 	 
H 	 -44.7562 	 32.1714 	 78.9833 	 
H 	 -40.6472 	 37.4706 	 83.0781 	 
H 	 -40.179 	 29.2208 	 83.1567 	 
