34

S 	 46.6168 	 20.3585 	 87.4566 	 
C 	 45.8363 	 21.8904 	 87.4856 	 
C 	 46.7025 	 23.0043 	 87.6512 	 
C 	 48.0715 	 22.579 	 87.5899 	 
C 	 48.1748 	 21.2175 	 87.5192 	 
H 	 48.9731 	 23.1414 	 87.4954 	 
C 	 46.2673 	 24.4831 	 87.5365 	 
H 	 45.4247 	 24.5797 	 86.8869 	 
H 	 46.9152 	 24.9733 	 86.7359 	 
C 	 46.1432 	 25.2071 	 88.8835 	 
H 	 45.9344 	 26.306 	 88.7424 	 
H 	 45.2477 	 24.8904 	 89.3792 	 
C 	 47.4012 	 25.0621 	 89.7175 	 
H 	 48.2402 	 24.971 	 89.0036 	 
H 	 47.7066 	 25.8437 	 90.3756 	 
H 	 47.4428 	 24.1456 	 90.3314 	 
S 	 49.2813 	 19.5008 	 85.7106 	 
C 	 51.008 	 18.9957 	 85.9018 	 
C 	 51.5827 	 19.6203 	 87.0066 	 
C 	 50.689 	 20.4149 	 87.7918 	 
C 	 49.4218 	 20.4639 	 87.1973 	 
H 	 52.6356 	 19.4461 	 87.2052 	 
C 	 51.1622 	 21.3279 	 88.9059 	 
H 	 51.2389 	 20.687 	 89.8265 	 
H 	 50.4321 	 22.0753 	 89.1491 	 
C 	 52.4786 	 22.0521 	 88.558 	 
H 	 52.2682 	 22.5745 	 87.5629 	 
H 	 53.2517 	 21.28 	 88.2533 	 
C 	 52.9408 	 23.0459 	 89.6354 	 
H 	 53.9986 	 23.2031 	 89.5435 	 
H 	 52.6855 	 22.5814 	 90.6285 	 
H 	 52.4716 	 23.9597 	 89.5007 	 
H 	 44.7664 	 21.9993 	 87.4482 	 
H 	 51.5924 	 18.5017 	 85.13 	 
