34

S 	 -12.6839 	 66.0097 	 53.7798 	 
C 	 -13.3349 	 64.4253 	 54.0315 	 
C 	 -12.4136 	 63.706 	 54.8814 	 
C 	 -11.3181 	 64.5056 	 55.3917 	 
C 	 -11.3263 	 65.7588 	 54.8613 	 
H 	 -10.5449 	 64.0694 	 55.9835 	 
C 	 -12.5848 	 62.3315 	 55.4297 	 
H 	 -13.6634 	 62.1533 	 55.4499 	 
H 	 -12.0305 	 62.2941 	 56.3875 	 
C 	 -12.0208 	 61.1559 	 54.5675 	 
H 	 -12.4452 	 61.2441 	 53.5607 	 
H 	 -10.9353 	 61.4242 	 54.4058 	 
C 	 -12.1534 	 59.7762 	 55.1982 	 
H 	 -11.5654 	 59.8207 	 56.0877 	 
H 	 -13.2266 	 59.5794 	 55.5149 	 
H 	 -11.5752 	 58.9654 	 54.7684 	 
S 	 -10.0747 	 67.6297 	 56.482 	 
C 	 -9.08865 	 68.8542 	 55.6678 	 
C 	 -8.93758 	 68.5542 	 54.3247 	 
C 	 -9.57157 	 67.3662 	 53.8923 	 
C 	 -10.2651 	 66.7643 	 54.904 	 
H 	 -8.34221 	 69.2745 	 53.8038 	 
C 	 -9.39689 	 66.783 	 52.4169 	 
H 	 -9.94813 	 65.8361 	 52.4973 	 
H 	 -8.33391 	 66.5266 	 52.2741 	 
C 	 -9.89785 	 67.6286 	 51.2856 	 
H 	 -9.14129 	 68.3577 	 51.1085 	 
H 	 -10.8977 	 68.0196 	 51.5906 	 
C 	 -10.0079 	 66.8041 	 50.0206 	 
H 	 -10.6434 	 65.9518 	 50.1721 	 
H 	 -9.10819 	 66.484 	 49.5941 	 
H 	 -10.6299 	 67.504 	 49.4027 	 
H 	 -14.2837 	 64.0169 	 53.6629 	 
H 	 -8.6897 	 69.7109 	 56.155 	 
