34

S 	 -15.8056 	 39.7341 	 38.3434 	 
C 	 -14.5384 	 40.9067 	 38.7115 	 
C 	 -13.3313 	 40.3298 	 39.1448 	 
C 	 -13.4248 	 38.8875 	 39.0799 	 
C 	 -14.6606 	 38.3845 	 38.6106 	 
H 	 -12.6988 	 38.2252 	 39.4156 	 
C 	 -12.0137 	 41.0618 	 39.6622 	 
H 	 -11.8537 	 40.6138 	 40.6811 	 
H 	 -12.31 	 42.1004 	 39.8289 	 
C 	 -10.8792 	 40.88 	 38.7665 	 
H 	 -10.7025 	 39.7679 	 38.598 	 
H 	 -11.1795 	 41.3053 	 37.8591 	 
C 	 -9.54314 	 41.623 	 39.2153 	 
H 	 -9.74178 	 42.7196 	 39.3959 	 
H 	 -9.05094 	 41.2252 	 40.101 	 
H 	 -8.8529 	 41.5154 	 38.356 	 
S 	 -15.9987 	 36.2747 	 39.7076 	 
C 	 -15.8438 	 34.6978 	 39.0387 	 
C 	 -15.3456 	 34.7838 	 37.731 	 
C 	 -14.7583 	 36.0495 	 37.469 	 
C 	 -15.0108 	 36.9697 	 38.4803 	 
H 	 -15.2196 	 33.9333 	 37.082 	 
C 	 -14.0539 	 36.2944 	 36.1538 	 
H 	 -13.4192 	 35.4074 	 35.9721 	 
H 	 -13.3596 	 37.0758 	 36.4059 	 
C 	 -14.9824 	 36.5585 	 35.0033 	 
H 	 -15.8118 	 37.0729 	 35.3757 	 
H 	 -15.2711 	 35.5785 	 34.5814 	 
C 	 -14.3267 	 37.3703 	 33.9212 	 
H 	 -13.5412 	 36.8194 	 33.3556 	 
H 	 -13.9522 	 38.3013 	 34.4032 	 
H 	 -15.0675 	 37.7601 	 33.2247 	 
H 	 -14.8303 	 41.9088 	 38.8721 	 
H 	 -16.3608 	 33.7454 	 39.301 	 
