34

S 	 -32.3441 	 65.7352 	 99.1306 	 
C 	 -33.808 	 66.6418 	 98.9683 	 
C 	 -33.5396 	 67.9664 	 98.6446 	 
C 	 -32.1955 	 68.2015 	 98.4439 	 
C 	 -31.3672 	 67.1143 	 98.7529 	 
H 	 -31.6824 	 69.1343 	 98.0549 	 
C 	 -34.6265 	 68.969 	 98.1959 	 
H 	 -35.5931 	 68.4345 	 98.1447 	 
H 	 -34.4687 	 69.2257 	 97.1647 	 
C 	 -34.7535 	 70.2145 	 99.1454 	 
H 	 -33.7795 	 70.4609 	 99.6626 	 
H 	 -34.977 	 71.0693 	 98.5861 	 
C 	 -35.8466 	 70.1812 	 100.214 	 
H 	 -36.8621 	 69.8882 	 99.8816 	 
H 	 -35.5954 	 69.3663 	 100.921 	 
H 	 -35.8798 	 71.0792 	 100.84 	 
S 	 -29.1454 	 67.2084 	 97.2242 	 
C 	 -27.5047 	 66.9363 	 97.9568 	 
C 	 -27.5311 	 66.8124 	 99.3437 	 
C 	 -28.9504 	 66.9014 	 99.7788 	 
C 	 -29.9206 	 67.0494 	 98.7578 	 
H 	 -26.5931 	 66.6972 	 99.8577 	 
C 	 -29.2589 	 66.7856 	 101.227 	 
H 	 -30.343 	 66.553 	 101.482 	 
H 	 -29.1417 	 67.7627 	 101.618 	 
C 	 -28.4078 	 65.7993 	 102.133 	 
H 	 -28.7515 	 66.0009 	 103.16 	 
H 	 -27.4168 	 66.2032 	 102.172 	 
C 	 -28.4056 	 64.2669 	 101.73 	 
H 	 -29.416 	 63.8615 	 101.876 	 
H 	 -27.7335 	 63.6143 	 102.241 	 
H 	 -28.0216 	 64.2542 	 100.723 	 
H 	 -34.7746 	 66.2313 	 99.1675 	 
H 	 -26.5915 	 66.8615 	 97.4071 	 
