34

S 	 -117.356 	 48.3705 	 134.353 	 
C 	 -116.985 	 48.0453 	 132.705 	 
C 	 -115.723 	 47.4829 	 132.574 	 
C 	 -115.094 	 47.2022 	 133.797 	 
C 	 -115.789 	 47.7419 	 134.891 	 
H 	 -114.03 	 46.887 	 133.821 	 
C 	 -115.079 	 46.9899 	 131.247 	 
H 	 -114.108 	 47.4591 	 131.358 	 
H 	 -115.61 	 47.36 	 130.339 	 
C 	 -114.791 	 45.4554 	 131.294 	 
H 	 -113.986 	 45.1289 	 130.55 	 
H 	 -114.401 	 45.1113 	 132.292 	 
C 	 -116.072 	 44.5664 	 131.117 	 
H 	 -116.608 	 44.7424 	 130.178 	 
H 	 -115.687 	 43.571 	 131.042 	 
H 	 -116.663 	 44.6096 	 132.044 	 
S 	 -115.677 	 49.4276 	 137.046 	 
C 	 -114.702 	 48.9603 	 138.458 	 
C 	 -113.946 	 47.8197 	 138.187 	 
C 	 -114.237 	 47.2238 	 136.949 	 
C 	 -115.239 	 47.9245 	 136.241 	 
H 	 -113.324 	 47.3437 	 139.004 	 
C 	 -113.731 	 45.9045 	 136.553 	 
H 	 -112.85 	 46.0289 	 135.936 	 
H 	 -114.396 	 45.6027 	 135.788 	 
C 	 -113.734 	 44.7689 	 137.552 	 
H 	 -114.587 	 44.9554 	 138.115 	 
H 	 -112.95 	 44.8921 	 138.268 	 
C 	 -113.766 	 43.3125 	 137.005 	 
H 	 -114.146 	 42.6298 	 137.83 	 
H 	 -112.827 	 42.9837 	 136.574 	 
H 	 -114.542 	 43.0999 	 136.239 	 
H 	 -117.725 	 48.0536 	 131.832 	 
H 	 -114.586 	 49.513 	 139.359 	 
