34

S 	 41.5917 	 32.435 	 50.2045 	 
C 	 42.2224 	 33.3594 	 51.6025 	 
C 	 41.1841 	 33.8667 	 52.3779 	 
C 	 39.9425 	 33.3372 	 51.8989 	 
C 	 39.9527 	 32.6358 	 50.6744 	 
H 	 38.9789 	 33.4772 	 52.3769 	 
C 	 41.2867 	 34.7396 	 53.5564 	 
H 	 41.8861 	 34.1635 	 54.3114 	 
H 	 40.308 	 34.8647 	 54.059 	 
C 	 41.838 	 36.1615 	 53.2493 	 
H 	 42.0294 	 36.5935 	 54.2134 	 
H 	 42.7191 	 35.9376 	 52.6403 	 
C 	 40.921 	 37.0433 	 52.4301 	 
H 	 40.2309 	 36.4626 	 51.7921 	 
H 	 40.2868 	 37.7056 	 53.0455 	 
H 	 41.5112 	 37.7335 	 51.8135 	 
S 	 38.9997 	 30.5672 	 49.1201 	 
C 	 37.4198 	 30.7799 	 48.3712 	 
C 	 36.7992 	 31.9357 	 48.7697 	 
C 	 37.6572 	 32.7502 	 49.537 	 
C 	 38.8062 	 32.1527 	 49.9277 	 
H 	 35.7939 	 32.1239 	 48.4862 	 
C 	 37.16 	 34.0991 	 50.009 	 
H 	 36.8552 	 34.4934 	 49.0783 	 
H 	 38.0573 	 34.6744 	 50.3499 	 
C 	 36.0464 	 34.0797 	 51.0414 	 
H 	 36.3865 	 33.4239 	 51.8289 	 
H 	 35.2105 	 33.5646 	 50.6421 	 
C 	 35.7231 	 35.4724 	 51.6517 	 
H 	 35.3691 	 35.4605 	 52.6701 	 
H 	 34.9858 	 35.9767 	 51.0967 	 
H 	 36.6304 	 36.105 	 51.8634 	 
H 	 43.244 	 33.8037 	 51.6623 	 
H 	 37.0376 	 30.1238 	 47.6403 	 
