34

S 	 50.552 	 4.97805 	 89.5967 	 
C 	 52.1971 	 4.74726 	 89.2805 	 
C 	 52.7268 	 3.52932 	 89.6442 	 
C 	 51.7131 	 2.8479 	 90.3454 	 
C 	 50.4796 	 3.38288 	 90.408 	 
H 	 51.7773 	 1.94682 	 90.9064 	 
C 	 54.1355 	 3.05258 	 89.5362 	 
H 	 54.3037 	 2.25228 	 90.2834 	 
H 	 54.7574 	 3.88767 	 89.8123 	 
C 	 54.5893 	 2.52818 	 88.1501 	 
H 	 53.8572 	 1.82664 	 87.7629 	 
H 	 54.5273 	 3.39678 	 87.5337 	 
C 	 56.0125 	 2.03966 	 88.1299 	 
H 	 55.9502 	 1.04879 	 88.5066 	 
H 	 56.3439 	 1.80993 	 87.0903 	 
H 	 56.7135 	 2.61017 	 88.705 	 
S 	 48.0083 	 4.00711 	 91.5245 	 
C 	 46.8632 	 2.76218 	 92.0573 	 
C 	 47.4547 	 1.55565 	 91.8229 	 
C 	 48.7294 	 1.57411 	 91.1208 	 
C 	 49.2175 	 2.8755 	 90.9555 	 
H 	 47.0493 	 0.604411 	 92.1778 	 
C 	 49.6314 	 0.328998 	 91.0836 	 
H 	 49.101 	 -0.419071 	 91.682 	 
H 	 50.6424 	 0.489522 	 91.4048 	 
C 	 49.6672 	 -0.410851 	 89.6761 	 
H 	 48.69 	 -0.425478 	 89.2015 	 
H 	 49.9567 	 -1.39388 	 89.8502 	 
C 	 50.7421 	 0.117914 	 88.7538 	 
H 	 51.6849 	 0.307285 	 89.2698 	 
H 	 50.5837 	 1.16148 	 88.3755 	 
H 	 50.8856 	 -0.462081 	 87.846 	 
H 	 52.7227 	 5.56527 	 88.8846 	 
H 	 45.7904 	 2.8758 	 92.3369 	 
