34

S 	 -22.5761 	 30.2263 	 46.006 	 
C 	 -21.0954 	 30.9812 	 46.6725 	 
C 	 -20.242 	 31.4267 	 45.6922 	 
C 	 -20.9452 	 31.4806 	 44.4462 	 
C 	 -22.1287 	 30.7737 	 44.3987 	 
H 	 -20.5869 	 31.8225 	 43.5922 	 
C 	 -18.8601 	 32.0599 	 45.9851 	 
H 	 -18.2819 	 31.6715 	 45.1927 	 
H 	 -18.4836 	 31.5412 	 46.8415 	 
C 	 -18.6742 	 33.5509 	 46.0763 	 
H 	 -18.9982 	 33.977 	 45.1083 	 
H 	 -19.2494 	 33.9871 	 46.8738 	 
C 	 -17.2098 	 34.0855 	 46.2989 	 
H 	 -16.5448 	 33.5263 	 45.5709 	 
H 	 -17.074 	 35.1699 	 46.2728 	 
H 	 -16.9333 	 33.7401 	 47.2919 	 
S 	 -24.8227 	 31.0068 	 43.7641 	 
C 	 -25.2262 	 30.9461 	 42.0884 	 
C 	 -24.1883 	 30.6957 	 41.2107 	 
C 	 -22.9579 	 30.4308 	 41.9594 	 
C 	 -23.1162 	 30.7042 	 43.3196 	 
H 	 -24.4748 	 30.6063 	 40.165 	 
C 	 -21.6981 	 30.1367 	 41.24 	 
H 	 -21.7637 	 29.2941 	 40.5646 	 
H 	 -20.9892 	 29.889 	 42.0094 	 
C 	 -21.0466 	 31.3243 	 40.5827 	 
H 	 -20.7945 	 32.164 	 41.2978 	 
H 	 -21.6689 	 31.8071 	 39.8124 	 
C 	 -19.7222 	 30.9792 	 39.8749 	 
H 	 -18.8358 	 30.8249 	 40.5256 	 
H 	 -19.4288 	 31.8301 	 39.2328 	 
H 	 -19.8453 	 30.0976 	 39.159 	 
H 	 -20.7694 	 31.0043 	 47.6712 	 
H 	 -26.2075 	 31.2882 	 41.6457 	 
