34

S 	 -30.8519 	 71.2308 	 110.159 	 
C 	 -32.053 	 70.05 	 109.528 	 
C 	 -33.1987 	 70.7423 	 109.149 	 
C 	 -33.2138 	 72.1319 	 109.58 	 
C 	 -32.0182 	 72.5402 	 110.135 	 
H 	 -34.0691 	 72.7972 	 109.428 	 
C 	 -34.4561 	 70.2043 	 108.548 	 
H 	 -34.9148 	 71.0451 	 108.134 	 
H 	 -35.0528 	 69.8238 	 109.316 	 
C 	 -34.3042 	 68.9795 	 107.587 	 
H 	 -33.6923 	 69.1203 	 106.781 	 
H 	 -33.7445 	 68.2549 	 108.156 	 
C 	 -35.6276 	 68.4991 	 107.075 	 
H 	 -35.9775 	 68.9749 	 106.187 	 
H 	 -35.619 	 67.4131 	 106.769 	 
H 	 -36.4405 	 68.5739 	 107.802 	 
S 	 -31.1295 	 74.0441 	 112.216 	 
C 	 -31.1105 	 75.6953 	 112.121 	 
C 	 -31.5392 	 76.1074 	 110.877 	 
C 	 -32.0341 	 75.1066 	 110.033 	 
C 	 -31.7837 	 73.8363 	 110.635 	 
H 	 -31.512 	 77.1468 	 110.613 	 
C 	 -32.7648 	 75.3954 	 108.756 	 
H 	 -33.5338 	 76.0353 	 108.93 	 
H 	 -33.2431 	 74.5217 	 108.294 	 
C 	 -31.9232 	 76.1535 	 107.768 	 
H 	 -30.992 	 75.5644 	 107.642 	 
H 	 -31.7581 	 77.1539 	 108.142 	 
C 	 -32.6654 	 76.4585 	 106.42 	 
H 	 -33.0393 	 75.5136 	 106.008 	 
H 	 -31.9304 	 76.9164 	 105.733 	 
H 	 -33.4784 	 77.1533 	 106.58 	 
H 	 -31.8404 	 69.0256 	 109.192 	 
H 	 -30.62 	 76.4035 	 112.777 	 
