34

S 	 -6.12661 	 53.3423 	 48.2868 	 
C 	 -6.8643 	 54.3798 	 49.5072 	 
C 	 -5.93443 	 55.1158 	 50.2046 	 
C 	 -4.58381 	 54.7295 	 49.8423 	 
C 	 -4.53261 	 53.9162 	 48.7346 	 
H 	 -3.58655 	 54.941 	 50.3675 	 
C 	 -6.19806 	 56.1805 	 51.2418 	 
H 	 -5.64274 	 57.0771 	 50.9582 	 
H 	 -5.66831 	 55.8662 	 52.0891 	 
C 	 -7.66683 	 56.3937 	 51.5553 	 
H 	 -8.21886 	 56.4746 	 50.5888 	 
H 	 -8.11259 	 55.5922 	 52.1961 	 
C 	 -7.60106 	 57.7802 	 52.258 	 
H 	 -7.44384 	 58.617 	 51.5548 	 
H 	 -8.54915 	 57.9775 	 52.7644 	 
H 	 -6.82839 	 57.7742 	 52.9711 	 
S 	 -3.07382 	 51.5694 	 47.9886 	 
C 	 -1.79422 	 51.7763 	 46.8839 	 
C 	 -1.31528 	 53.0717 	 46.7739 	 
C 	 -2.20589 	 54.0172 	 47.4318 	 
C 	 -3.29025 	 53.3673 	 48.0804 	 
H 	 -0.472316 	 53.3077 	 46.0558 	 
C 	 -2.0539 	 55.4447 	 47.4442 	 
H 	 -1.04931 	 55.5614 	 46.9775 	 
H 	 -1.96122 	 55.803 	 48.4854 	 
C 	 -3.08094 	 56.2744 	 46.6472 	 
H 	 -4.12898 	 55.8602 	 46.8936 	 
H 	 -2.89073 	 56.1444 	 45.628 	 
C 	 -3.11515 	 57.7222 	 47.1248 	 
H 	 -2.13261 	 58.2518 	 47.0427 	 
H 	 -3.50931 	 57.8181 	 48.1347 	 
H 	 -3.85674 	 58.2397 	 46.4802 	 
H 	 -7.93836 	 54.4621 	 49.6407 	 
H 	 -1.17126 	 50.9085 	 46.5054 	 
