34

S 	 -107.12 	 56.3635 	 114.946 	 
C 	 -107.077 	 57.1612 	 113.33 	 
C 	 -106.858 	 56.2244 	 112.334 	 
C 	 -106.676 	 54.8546 	 112.834 	 
C 	 -106.832 	 54.7924 	 114.239 	 
H 	 -106.599 	 53.9753 	 112.243 	 
C 	 -106.782 	 56.5261 	 110.819 	 
H 	 -105.904 	 55.9849 	 110.438 	 
H 	 -106.569 	 57.5783 	 110.758 	 
C 	 -108.132 	 56.216 	 110.016 	 
H 	 -108.501 	 55.189 	 110.061 	 
H 	 -108.953 	 56.6906 	 110.512 	 
C 	 -108.15 	 56.7327 	 108.575 	 
H 	 -107.282 	 56.2381 	 108.072 	 
H 	 -109.089 	 56.4778 	 108.033 	 
H 	 -107.932 	 57.7708 	 108.609 	 
S 	 -105.977 	 53.8917 	 116.566 	 
C 	 -106.048 	 52.2257 	 116.942 	 
C 	 -106.817 	 51.5258 	 115.96 	 
C 	 -107.343 	 52.3725 	 114.893 	 
C 	 -106.912 	 53.6485 	 115.087 	 
H 	 -106.886 	 50.5119 	 116.079 	 
C 	 -108.201 	 51.8956 	 113.719 	 
H 	 -107.573 	 51.4205 	 112.983 	 
H 	 -108.483 	 52.7665 	 113.13 	 
C 	 -109.49 	 51.1911 	 114.129 	 
H 	 -109.21 	 50.353 	 114.818 	 
H 	 -110.044 	 50.847 	 113.231 	 
C 	 -110.423 	 52.143 	 114.943 	 
H 	 -111.334 	 51.6297 	 115.177 	 
H 	 -110.541 	 53.1387 	 114.48 	 
H 	 -109.992 	 52.357 	 115.914 	 
H 	 -107.338 	 58.1581 	 113.129 	 
H 	 -105.432 	 51.7433 	 117.679 	 
