34

S 	 -7.1887 	 13.4359 	 86.0793 	 
C 	 -7.95604 	 12.0029 	 85.4351 	 
C 	 -7.22753 	 10.8482 	 85.6741 	 
C 	 -5.97334 	 11.1103 	 86.2953 	 
C 	 -5.84889 	 12.4421 	 86.624 	 
H 	 -5.28284 	 10.3031 	 86.3865 	 
C 	 -7.63591 	 9.46296 	 85.2225 	 
H 	 -6.78472 	 9.16532 	 84.4973 	 
H 	 -8.56926 	 9.4947 	 84.6403 	 
C 	 -7.81175 	 8.41927 	 86.4145 	 
H 	 -7.91487 	 7.45935 	 86.0026 	 
H 	 -6.86326 	 8.44856 	 87.0968 	 
C 	 -9.02544 	 8.76867 	 87.3104 	 
H 	 -9.3235 	 8.07986 	 88.0225 	 
H 	 -8.6706 	 9.71113 	 87.7916 	 
H 	 -9.93739 	 8.97461 	 86.8049 	 
S 	 -5.31512 	 14.1392 	 88.5561 	 
C 	 -3.75307 	 14.6141 	 88.977 	 
C 	 -2.76806 	 13.943 	 88.2407 	 
C 	 -3.40228 	 12.995 	 87.2756 	 
C 	 -4.74532 	 13.0966 	 87.2928 	 
H 	 -1.69494 	 14.1569 	 88.3314 	 
C 	 -2.5402 	 12.0667 	 86.4471 	 
H 	 -1.76928 	 12.7313 	 86.0299 	 
H 	 -3.14846 	 11.598 	 85.6522 	 
C 	 -1.84884 	 10.9795 	 87.2682 	 
H 	 -1.3122 	 11.4411 	 88.0894 	 
H 	 -1.06277 	 10.4145 	 86.7 	 
C 	 -2.84834 	 9.99689 	 87.9809 	 
H 	 -3.36654 	 9.52094 	 87.0972 	 
H 	 -3.55752 	 10.4786 	 88.664 	 
H 	 -2.30549 	 9.27523 	 88.5367 	 
H 	 -8.95727 	 11.8416 	 85.0216 	 
H 	 -3.53995 	 15.3458 	 89.7454 	 
