34

S 	 46.1588 	 5.83693 	 84.3947 	 
C 	 46.2846 	 7.25151 	 83.3342 	 
C 	 47.1474 	 8.20769 	 83.8519 	 
C 	 47.6195 	 7.83751 	 85.1768 	 
C 	 47.1553 	 6.55746 	 85.5349 	 
H 	 48.2784 	 8.36593 	 85.7657 	 
C 	 47.5939 	 9.50798 	 83.1701 	 
H 	 47.7138 	 9.32953 	 82.024 	 
H 	 48.5465 	 9.69066 	 83.6646 	 
C 	 46.7083 	 10.6885 	 83.3504 	 
H 	 45.6845 	 10.5795 	 82.897 	 
H 	 46.495 	 10.7734 	 84.4215 	 
C 	 47.3685 	 12.0806 	 82.9222 	 
H 	 48.0606 	 12.0596 	 82.1245 	 
H 	 46.7033 	 12.8658 	 82.5825 	 
H 	 48.0485 	 12.5183 	 83.5977 	 
S 	 47.9882 	 4.12618 	 86.587 	 
C 	 48.2019 	 3.98623 	 88.3367 	 
C 	 48.1786 	 5.21616 	 88.8875 	 
C 	 47.7468 	 6.23755 	 88.0415 	 
C 	 47.517 	 5.81546 	 86.7378 	 
H 	 48.6245 	 5.29279 	 89.8712 	 
C 	 47.6488 	 7.68239 	 88.5255 	 
H 	 47.024 	 7.74036 	 89.3646 	 
H 	 47.0577 	 8.20741 	 87.8237 	 
C 	 48.9353 	 8.53739 	 88.6555 	 
H 	 49.5244 	 8.28499 	 87.7941 	 
H 	 49.4952 	 8.06901 	 89.4918 	 
C 	 48.8188 	 10.0554 	 88.9701 	 
H 	 48.2747 	 10.6287 	 88.2104 	 
H 	 49.8759 	 10.3716 	 88.9883 	 
H 	 48.3891 	 10.2414 	 89.9708 	 
H 	 46.0607 	 7.2696 	 82.2779 	 
H 	 48.4721 	 3.14594 	 88.9288 	 
