34

S 	 -39.0014 	 67.0657 	 143.414 	 
C 	 -38.867 	 65.7027 	 142.41 	 
C 	 -38.2212 	 64.6435 	 143.051 	 
C 	 -37.9689 	 64.9641 	 144.458 	 
C 	 -38.3102 	 66.2242 	 144.787 	 
H 	 -37.4812 	 64.4003 	 145.261 	 
C 	 -38.1123 	 63.297 	 142.461 	 
H 	 -37.5619 	 62.7346 	 143.175 	 
H 	 -37.4469 	 63.2645 	 141.623 	 
C 	 -39.3331 	 62.6703 	 141.895 	 
H 	 -39.6856 	 63.4467 	 141.189 	 
H 	 -39.0313 	 61.7718 	 141.306 	 
C 	 -40.4189 	 62.4116 	 143.024 	 
H 	 -40.063 	 62.5936 	 144.053 	 
H 	 -41.2298 	 63.1174 	 142.968 	 
H 	 -40.8072 	 61.3579 	 142.955 	 
S 	 -39.3691 	 67.7115 	 146.837 	 
C 	 -38.3959 	 68.443 	 147.998 	 
C 	 -37.1122 	 67.9428 	 147.972 	 
C 	 -36.9037 	 67.1396 	 146.811 	 
C 	 -38.0426 	 66.9253 	 146.033 	 
H 	 -36.3873 	 68.3746 	 148.625 	 
C 	 -35.4798 	 66.7642 	 146.316 	 
H 	 -35.2225 	 67.4021 	 145.528 	 
H 	 -35.5451 	 65.7899 	 145.926 	 
C 	 -34.3544 	 66.6624 	 147.368 	 
H 	 -34.508 	 66.039 	 148.214 	 
H 	 -34.2974 	 67.6413 	 147.87 	 
C 	 -32.9739 	 66.2297 	 146.73 	 
H 	 -32.3992 	 65.8291 	 147.614 	 
H 	 -32.5171 	 67.1929 	 146.327 	 
H 	 -33.1418 	 65.5048 	 145.984 	 
H 	 -39.2128 	 65.7289 	 141.367 	 
H 	 -38.738 	 69.1244 	 148.708 	 
