34

S 	 36.3489 	 -1.83056 	 78.475 	 
C 	 36.9347 	 -3.4457 	 78.2912 	 
C 	 36.2131 	 -4.28942 	 79.1623 	 
C 	 35.3378 	 -3.52659 	 80.0227 	 
C 	 35.2009 	 -2.20834 	 79.6826 	 
H 	 34.8042 	 -3.91624 	 80.8191 	 
C 	 36.3354 	 -5.82834 	 79.2126 	 
H 	 36.256 	 -6.20982 	 80.2705 	 
H 	 37.353 	 -6.16261 	 78.9728 	 
C 	 35.3995 	 -6.59815 	 78.3683 	 
H 	 35.7652 	 -6.19366 	 77.4137 	 
H 	 35.6951 	 -7.67823 	 78.3629 	 
C 	 33.8687 	 -6.42724 	 78.6333 	 
H 	 33.4524 	 -6.73756 	 79.5602 	 
H 	 33.5929 	 -5.36125 	 78.3768 	 
H 	 33.305 	 -6.97018 	 77.8109 	 
S 	 32.6471 	 -1.16582 	 79.4202 	 
C 	 32.2686 	 0.125497 	 80.5765 	 
C 	 33.1719 	 0.190496 	 81.6654 	 
C 	 34.3278 	 -0.589429 	 81.3779 	 
C 	 34.2224 	 -1.27632 	 80.2069 	 
H 	 33.0233 	 0.914125 	 82.474 	 
C 	 35.5007 	 -0.536374 	 82.2551 	 
H 	 35.9023 	 -1.52121 	 82.3655 	 
H 	 35.17 	 -0.346719 	 83.2403 	 
C 	 36.4626 	 0.52123 	 81.7384 	 
H 	 35.9562 	 1.50744 	 81.7986 	 
H 	 36.6293 	 0.260131 	 80.7141 	 
C 	 37.7114 	 0.663301 	 82.571 	 
H 	 38.0672 	 -0.323896 	 82.7664 	 
H 	 37.4318 	 1.21691 	 83.4273 	 
H 	 38.4867 	 1.19578 	 82.0131 	 
H 	 37.6048 	 -3.82499 	 77.5732 	 
H 	 31.3328 	 0.679971 	 80.5308 	 
