34

S 	 -31.509 	 61.1433 	 108.146 	 
C 	 -30.7694 	 61.6376 	 109.668 	 
C 	 -31.5079 	 62.5512 	 110.38 	 
C 	 -32.8292 	 62.7631 	 109.826 	 
C 	 -32.9939 	 62.0704 	 108.628 	 
H 	 -33.6671 	 63.2643 	 110.258 	 
C 	 -31.1142 	 63.2268 	 111.678 	 
H 	 -31.852 	 64.0802 	 111.827 	 
H 	 -30.1614 	 63.826 	 111.54 	 
C 	 -31.1198 	 62.4235 	 112.937 	 
H 	 -30.3829 	 61.6132 	 112.945 	 
H 	 -30.6924 	 63.0243 	 113.75 	 
C 	 -32.4307 	 61.9603 	 113.452 	 
H 	 -33.1197 	 62.7543 	 113.394 	 
H 	 -32.8602 	 61.1719 	 112.836 	 
H 	 -32.2561 	 61.5631 	 114.438 	 
S 	 -34.5735 	 60.2953 	 107.39 	 
C 	 -35.9734 	 60.9051 	 106.481 	 
C 	 -36.2117 	 62.2317 	 106.654 	 
C 	 -35.21 	 62.852 	 107.431 	 
C 	 -34.2377 	 61.9166 	 107.857 	 
H 	 -37.116 	 62.6683 	 106.195 	 
C 	 -35.3309 	 64.305 	 107.793 	 
H 	 -35.1998 	 64.8461 	 106.835 	 
H 	 -34.4055 	 64.5299 	 108.38 	 
C 	 -36.6223 	 64.7716 	 108.469 	 
H 	 -37.4685 	 64.4393 	 107.837 	 
H 	 -36.5225 	 65.8256 	 108.538 	 
C 	 -36.7831 	 64.0911 	 109.883 	 
H 	 -36.8194 	 63.0468 	 109.626 	 
H 	 -37.707 	 64.4078 	 110.351 	 
H 	 -36.0392 	 64.3426 	 110.624 	 
H 	 -29.892 	 61.2753 	 110.143 	 
H 	 -36.628 	 60.2031 	 105.997 	 
