34

S 	 -14.2343 	 39.4175 	 34.6968 	 
C 	 -15.8569 	 38.9149 	 34.5112 	 
C 	 -16.3052 	 39.0202 	 33.2247 	 
C 	 -15.3413 	 39.6829 	 32.3965 	 
C 	 -14.1281 	 39.9286 	 33.032 	 
H 	 -15.5315 	 40.0264 	 31.3563 	 
C 	 -17.6687 	 38.6169 	 32.7168 	 
H 	 -18.0975 	 39.4616 	 32.24 	 
H 	 -18.299 	 38.4019 	 33.5867 	 
C 	 -17.6128 	 37.3066 	 31.9072 	 
H 	 -18.6117 	 36.9188 	 31.6879 	 
H 	 -17.1739 	 37.4571 	 30.9471 	 
C 	 -16.8409 	 36.0784 	 32.4209 	 
H 	 -16.8924 	 35.2292 	 31.703 	 
H 	 -15.7909 	 36.1913 	 32.5123 	 
H 	 -17.2597 	 35.8364 	 33.419 	 
S 	 -11.4577 	 39.4669 	 32.0671 	 
C 	 -10.618 	 40.7722 	 31.3341 	 
C 	 -11.3967 	 41.936 	 31.4366 	 
C 	 -12.7279 	 41.7797 	 31.8727 	 
C 	 -12.9573 	 40.4939 	 32.337 	 
H 	 -11.0424 	 42.794 	 31.1245 	 
C 	 -13.6644 	 42.9663 	 32.0278 	 
H 	 -13.137 	 43.7686 	 32.5357 	 
H 	 -14.232 	 42.7849 	 32.9443 	 
C 	 -14.6505 	 43.4266 	 30.9417 	 
H 	 -15.1676 	 44.2981 	 31.2966 	 
H 	 -15.4285 	 42.6661 	 30.5454 	 
C 	 -13.9386 	 43.9408 	 29.6877 	 
H 	 -12.8976 	 43.7317 	 29.6052 	 
H 	 -13.9391 	 44.9975 	 29.7004 	 
H 	 -14.4007 	 43.5792 	 28.7772 	 
H 	 -16.4579 	 38.3901 	 35.2734 	 
H 	 -9.58819 	 40.7701 	 30.9379 	 
