34

S 	 -76.4864 	 49.8663 	 122.51 	 
C 	 -78.2184 	 50.2426 	 122.754 	 
C 	 -78.9854 	 49.0816 	 122.756 	 
C 	 -78.1987 	 47.9569 	 122.343 	 
C 	 -76.8279 	 48.1774 	 122.181 	 
H 	 -78.5774 	 47.0015 	 121.982 	 
C 	 -80.493 	 49.0631 	 122.776 	 
H 	 -80.8227 	 49.3109 	 121.731 	 
H 	 -80.8161 	 49.9033 	 123.382 	 
C 	 -81.1586 	 47.7072 	 122.969 	 
H 	 -82.1979 	 47.8624 	 122.936 	 
H 	 -80.9863 	 47.1257 	 122.105 	 
C 	 -80.7157 	 47.0908 	 124.248 	 
H 	 -80.8135 	 46.014 	 124.425 	 
H 	 -79.6587 	 47.2244 	 124.366 	 
H 	 -81.2848 	 47.6281 	 124.95 	 
S 	 -74.4916 	 47.9725 	 120.722 	 
C 	 -73.7117 	 46.4438 	 120.514 	 
C 	 -74.4178 	 45.4287 	 121.123 	 
C 	 -75.5494 	 45.9157 	 121.887 	 
C 	 -75.7645 	 47.258 	 121.722 	 
H 	 -73.9383 	 44.4328 	 121.145 	 
C 	 -76.2827 	 44.9643 	 122.794 	 
H 	 -76.8833 	 44.2631 	 122.229 	 
H 	 -76.984 	 45.6662 	 123.378 	 
C 	 -75.5069 	 44.1848 	 123.813 	 
H 	 -74.8961 	 44.917 	 124.392 	 
H 	 -74.7805 	 43.4885 	 123.39 	 
C 	 -76.3619 	 43.3562 	 124.761 	 
H 	 -75.6073 	 42.669 	 125.252 	 
H 	 -77.1065 	 42.6692 	 124.275 	 
H 	 -76.7447 	 44.052 	 125.488 	 
H 	 -78.7246 	 51.2141 	 122.998 	 
H 	 -72.7533 	 46.2877 	 120.087 	 
