34

S 	 17.8953 	 18.8923 	 39.9356 	 
C 	 18.1871 	 18.8109 	 38.255 	 
C 	 17.0277 	 18.948 	 37.4801 	 
C 	 15.9076 	 18.9503 	 38.3344 	 
C 	 16.2248 	 18.8041 	 39.6675 	 
H 	 14.8802 	 18.916 	 37.9948 	 
C 	 16.8971 	 18.99 	 35.9882 	 
H 	 17.2032 	 17.9994 	 35.5757 	 
H 	 17.6554 	 19.6389 	 35.7147 	 
C 	 15.5703 	 19.5727 	 35.283 	 
H 	 15.6545 	 19.4762 	 34.1924 	 
H 	 14.7159 	 18.9626 	 35.5683 	 
C 	 15.3052 	 20.9933 	 35.7981 	 
H 	 15.1575 	 21.166 	 36.8799 	 
H 	 16.1735 	 21.6592 	 35.569 	 
H 	 14.5069 	 21.4949 	 35.164 	 
S 	 15.2163 	 17.4083 	 41.9047 	 
C 	 13.9878 	 18.0874 	 42.8913 	 
C 	 13.4532 	 19.2041 	 42.2328 	 
C 	 14.1257 	 19.5272 	 40.9829 	 
C 	 15.1825 	 18.6685 	 40.7079 	 
H 	 12.5807 	 19.7057 	 42.5874 	 
C 	 13.8256 	 20.8306 	 40.2765 	 
H 	 12.9087 	 21.2958 	 40.6725 	 
H 	 13.5889 	 20.7142 	 39.2534 	 
C 	 14.8907 	 21.8838 	 40.4135 	 
H 	 14.5707 	 22.7877 	 39.8381 	 
H 	 15.8242 	 21.5297 	 39.9578 	 
C 	 15.1775 	 22.392 	 41.8893 	 
H 	 15.6402 	 21.5647 	 42.4496 	 
H 	 14.2492 	 22.8065 	 42.3093 	 
H 	 15.8496 	 23.2706 	 41.9224 	 
H 	 19.1534 	 18.5896 	 37.8057 	 
H 	 13.5003 	 17.5795 	 43.7199 	 
