34

S 	 -111.381 	 56.8236 	 110.176 	 
C 	 -110.55 	 55.3839 	 110.617 	 
C 	 -110.982 	 55.0264 	 111.909 	 
C 	 -111.861 	 56.0524 	 112.458 	 
C 	 -112.144 	 57.169 	 111.726 	 
H 	 -112.24 	 55.9739 	 113.483 	 
C 	 -110.501 	 53.8579 	 112.768 	 
H 	 -111.303 	 53.6921 	 113.494 	 
H 	 -109.584 	 54.1884 	 113.285 	 
C 	 -110.296 	 52.6298 	 111.893 	 
H 	 -111.185 	 52.3719 	 111.264 	 
H 	 -109.389 	 52.7459 	 111.308 	 
C 	 -110.201 	 51.2983 	 112.721 	 
H 	 -110.496 	 50.2728 	 112.26 	 
H 	 -109.167 	 51.1521 	 113.042 	 
H 	 -110.706 	 51.3942 	 113.65 	 
S 	 -112.821 	 59.7284 	 111.147 	 
C 	 -114.037 	 60.6374 	 111.971 	 
C 	 -114.576 	 59.7965 	 112.93 	 
C 	 -114.068 	 58.4554 	 112.997 	 
C 	 -113.071 	 58.2629 	 112.023 	 
H 	 -115.48 	 60.2197 	 113.427 	 
C 	 -114.49 	 57.5161 	 114.132 	 
H 	 -114.508 	 56.4942 	 113.824 	 
H 	 -115.514 	 57.8225 	 114.274 	 
C 	 -113.8 	 57.6913 	 115.481 	 
H 	 -113.776 	 58.712 	 115.885 	 
H 	 -112.749 	 57.528 	 115.358 	 
C 	 -114.325 	 56.7343 	 116.568 	 
H 	 -113.691 	 56.798 	 117.507 	 
H 	 -114.257 	 55.6716 	 116.331 	 
H 	 -115.387 	 56.8989 	 116.854 	 
H 	 -109.832 	 54.9995 	 109.906 	 
H 	 -114.334 	 61.677 	 111.754 	 
