34

S 	 -55.7032 	 57.199 	 135.936 	 
C 	 -54.256 	 57.4371 	 136.799 	 
C 	 -54.455 	 57.8733 	 138.084 	 
C 	 -55.8375 	 57.9085 	 138.443 	 
C 	 -56.6324 	 57.4344 	 137.399 	 
H 	 -56.236 	 58.268 	 139.453 	 
C 	 -53.2528 	 58.3478 	 138.943 	 
H 	 -52.4813 	 57.6214 	 139.053 	 
H 	 -53.5226 	 58.4328 	 139.97 	 
C 	 -52.7048 	 59.6971 	 138.527 	 
H 	 -52.2013 	 59.5747 	 137.562 	 
H 	 -53.5187 	 60.4326 	 138.284 	 
C 	 -51.7885 	 60.3312 	 139.518 	 
H 	 -51.414 	 59.6726 	 140.326 	 
H 	 -50.9506 	 60.535 	 138.907 	 
H 	 -52.1736 	 61.2919 	 139.838 	 
S 	 -58.9193 	 58.0669 	 136.031 	 
C 	 -60.4609 	 57.4172 	 136.677 	 
C 	 -60.3436 	 56.7218 	 137.821 	 
C 	 -58.9883 	 56.7074 	 138.285 	 
C 	 -58.1025 	 57.3247 	 137.381 	 
H 	 -61.1984 	 56.324 	 138.257 	 
C 	 -58.5959 	 55.8423 	 139.481 	 
H 	 -57.5691 	 55.6526 	 139.318 	 
H 	 -59.2316 	 54.9532 	 139.478 	 
C 	 -58.8177 	 56.4749 	 140.884 	 
H 	 -59.9332 	 56.7305 	 140.973 	 
H 	 -58.2929 	 57.3861 	 140.839 	 
C 	 -58.3803 	 55.5729 	 142.047 	 
H 	 -57.3627 	 55.6985 	 142.33 	 
H 	 -58.43 	 54.5104 	 141.741 	 
H 	 -58.9575 	 55.7289 	 142.896 	 
H 	 -53.2491 	 57.5053 	 136.347 	 
H 	 -61.3716 	 57.6699 	 136.226 	 
