34

S 	 5.92269 	 -12.2512 	 69.9897 	 
C 	 5.92595 	 -12.6089 	 68.2962 	 
C 	 6.4017 	 -11.5394 	 67.5819 	 
C 	 7.1937 	 -10.6273 	 68.4163 	 
C 	 7.02797 	 -10.8966 	 69.8042 	 
H 	 7.69498 	 -9.74531 	 68.0079 	 
C 	 6.53269 	 -11.5976 	 66.0427 	 
H 	 5.70988 	 -12.1919 	 65.5758 	 
H 	 7.45206 	 -12.1164 	 65.8371 	 
C 	 6.42579 	 -10.2206 	 65.4187 	 
H 	 7.25095 	 -9.6111 	 65.7915 	 
H 	 6.6377 	 -10.277 	 64.376 	 
C 	 5.12302 	 -9.53803 	 65.7354 	 
H 	 4.83227 	 -8.65634 	 65.212 	 
H 	 4.35269 	 -10.2012 	 65.5265 	 
H 	 4.92553 	 -9.37092 	 66.7899 	 
S 	 8.02102 	 -11.0999 	 72.3373 	 
C 	 8.57501 	 -9.63405 	 73.1731 	 
C 	 8.36554 	 -8.49339 	 72.4296 	 
C 	 7.79489 	 -8.79034 	 71.1574 	 
C 	 7.59536 	 -10.1481 	 70.9302 	 
H 	 8.70639 	 -7.52068 	 72.8319 	 
C 	 7.38474 	 -7.56918 	 70.2604 	 
H 	 6.95007 	 -7.904 	 69.3394 	 
H 	 8.2789 	 -7.00886 	 70.1172 	 
C 	 6.24904 	 -6.71848 	 70.8801 	 
H 	 6.03405 	 -6.14302 	 70.0749 	 
H 	 6.63347 	 -6.02571 	 71.6458 	 
C 	 4.91108 	 -7.50757 	 71.2184 	 
H 	 4.16667 	 -6.82373 	 71.5202 	 
H 	 5.20548 	 -8.1473 	 72.0482 	 
H 	 4.5116 	 -8.05422 	 70.3965 	 
H 	 5.61986 	 -13.5814 	 67.9123 	 
H 	 9.15326 	 -9.53634 	 74.0695 	 
