34

S 	 47.1831 	 11.4958 	 84.283 	 
C 	 46.8256 	 13.2148 	 84.2462 	 
C 	 45.9512 	 13.5161 	 83.2073 	 
C 	 45.7418 	 12.3967 	 82.3598 	 
C 	 46.4015 	 11.2365 	 82.6903 	 
H 	 45.0707 	 12.3735 	 81.5052 	 
C 	 45.1983 	 14.8252 	 83.0041 	 
H 	 45.8316 	 15.5564 	 82.5176 	 
H 	 45.1416 	 15.32 	 83.983 	 
C 	 43.858 	 14.8189 	 82.203 	 
H 	 44.0123 	 14.6311 	 81.1845 	 
H 	 43.1717 	 14.0142 	 82.508 	 
C 	 43.115 	 16.1061 	 82.2669 	 
H 	 43.799 	 17.0365 	 82.1868 	 
H 	 42.3937 	 16.1923 	 81.4753 	 
H 	 42.5761 	 16.2378 	 83.1871 	 
S 	 46.0454 	 9.9977 	 80.2729 	 
C 	 46.4951 	 8.37056 	 80.054 	 
C 	 46.8316 	 7.75581 	 81.2046 	 
C 	 46.8111 	 8.64733 	 82.3594 	 
C 	 46.4269 	 9.95261 	 82.0009 	 
H 	 47.0793 	 6.70914 	 81.2451 	 
C 	 47.1175 	 8.09759 	 83.7212 	 
H 	 47.9926 	 8.69046 	 84.0974 	 
H 	 47.4257 	 7.01996 	 83.718 	 
C 	 45.9229 	 7.97482 	 84.7058 	 
H 	 45.266 	 7.34861 	 84.3218 	 
H 	 45.6456 	 8.96424 	 84.8536 	 
C 	 46.3929 	 7.39039 	 86.0608 	 
H 	 47.1651 	 8.05444 	 86.5151 	 
H 	 46.8871 	 6.47938 	 85.9812 	 
H 	 45.6042 	 7.34931 	 86.841 	 
H 	 47.0845 	 13.8844 	 84.9988 	 
H 	 46.5863 	 7.91054 	 79.0906 	 
