34

S 	 -5.63067 	 19.5225 	 53.2624 	 
C 	 -4.79601 	 18.6568 	 52.0389 	 
C 	 -3.59675 	 18.1172 	 52.5408 	 
C 	 -3.37937 	 18.5245 	 53.9503 	 
C 	 -4.39062 	 19.3361 	 54.4576 	 
H 	 -2.53802 	 18.2211 	 54.6111 	 
C 	 -2.61325 	 17.2193 	 51.8699 	 
H 	 -2.95651 	 17.0936 	 50.8453 	 
H 	 -2.59997 	 16.2634 	 52.4511 	 
C 	 -1.30038 	 17.8993 	 51.6727 	 
H 	 -1.48228 	 18.7475 	 50.9784 	 
H 	 -0.914525 	 18.2192 	 52.6569 	 
C 	 -0.294588 	 16.9811 	 50.8733 	 
H 	 -0.69182 	 16.6533 	 49.9579 	 
H 	 0.596634 	 17.4923 	 50.7059 	 
H 	 -0.133922 	 16.0558 	 51.2678 	 
S 	 -4.91951 	 18.5084 	 57.0681 	 
C 	 -5.02205 	 19.6178 	 58.3713 	 
C 	 -4.69202 	 20.8633 	 57.9579 	 
C 	 -4.44672 	 20.917 	 56.516 	 
C 	 -4.54745 	 19.7196 	 55.8471 	 
H 	 -4.66912 	 21.6875 	 58.6699 	 
C 	 -3.79127 	 22.1426 	 55.9312 	 
H 	 -4.63344 	 22.8969 	 55.9404 	 
H 	 -3.65987 	 21.9822 	 54.9111 	 
C 	 -2.566 	 22.8683 	 56.6542 	 
H 	 -2.72674 	 23.0012 	 57.7108 	 
H 	 -2.4861 	 23.9273 	 56.3274 	 
C 	 -1.29547 	 22.2043 	 56.4648 	 
H 	 -1.25002 	 21.255 	 56.8338 	 
H 	 -0.583559 	 22.859 	 56.9075 	 
H 	 -1.04668 	 22.0788 	 55.3695 	 
H 	 -5.07605 	 18.4887 	 51.0286 	 
H 	 -5.05858 	 19.393 	 59.4279 	 
