34

S 	 -4.36046 	 -6.84959 	 83.6949 	 
C 	 -3.17104 	 -8.10456 	 83.3867 	 
C 	 -3.53393 	 -9.24989 	 84.0131 	 
C 	 -4.84241 	 -9.14892 	 84.6193 	 
C 	 -5.33392 	 -7.86762 	 84.6279 	 
H 	 -5.10923 	 -10.0299 	 85.2327 	 
C 	 -2.79861 	 -10.6247 	 83.9047 	 
H 	 -2.8438 	 -11.1657 	 84.8128 	 
H 	 -1.81742 	 -10.4304 	 83.7354 	 
C 	 -3.41491 	 -11.5779 	 82.8221 	 
H 	 -4.29071 	 -12.0667 	 83.0773 	 
H 	 -3.63683 	 -10.91 	 82.0052 	 
C 	 -2.43319 	 -12.603 	 82.3567 	 
H 	 -2.41825 	 -13.4043 	 83.1833 	 
H 	 -2.64886 	 -13.1167 	 81.4637 	 
H 	 -1.41294 	 -12.2571 	 82.1634 	 
S 	 -7.86238 	 -6.76128 	 84.3745 	 
C 	 -8.66378 	 -6.29301 	 85.8805 	 
C 	 -7.90579 	 -6.62911 	 87.0132 	 
C 	 -6.63083 	 -7.15653 	 86.7154 	 
C 	 -6.43389 	 -7.27175 	 85.3109 	 
H 	 -8.33534 	 -6.47869 	 87.9822 	 
C 	 -5.58686 	 -7.13676 	 87.8534 	 
H 	 -6.0038 	 -6.73487 	 88.809 	 
H 	 -4.83237 	 -6.35963 	 87.6698 	 
C 	 -4.70713 	 -8.44602 	 87.9973 	 
H 	 -4.20517 	 -8.60757 	 87.0881 	 
H 	 -5.38104 	 -9.21415 	 88.0899 	 
C 	 -3.69849 	 -8.50174 	 89.0655 	 
H 	 -2.93432 	 -7.67184 	 88.9649 	 
H 	 -3.16318 	 -9.41947 	 88.9598 	 
H 	 -4.07645 	 -8.5513 	 90.1132 	 
H 	 -2.27948 	 -7.92579 	 82.8868 	 
H 	 -9.59702 	 -5.83294 	 85.9631 	 
