34

S 	 17.9008 	 -10.2194 	 78.9509 	 
C 	 16.7128 	 -10.9825 	 80.1055 	 
C 	 17.2085 	 -11.0931 	 81.4216 	 
C 	 18.635 	 -10.828 	 81.4019 	 
C 	 19.149 	 -10.2952 	 80.2197 	 
H 	 19.2516 	 -10.9897 	 82.2138 	 
C 	 16.4463 	 -11.6077 	 82.6103 	 
H 	 15.3808 	 -11.6973 	 82.4277 	 
H 	 16.4821 	 -10.7859 	 83.3284 	 
C 	 17.104 	 -12.8582 	 83.2427 	 
H 	 18.0008 	 -12.6472 	 83.7228 	 
H 	 16.3645 	 -13.1996 	 84.0131 	 
C 	 17.2213 	 -14.0444 	 82.2668 	 
H 	 17.626 	 -14.8757 	 82.8387 	 
H 	 16.2777 	 -14.4506 	 82.0199 	 
H 	 17.7861 	 -13.9559 	 81.249 	 
S 	 20.6945 	 -8.09093 	 79.8557 	 
C 	 22.3811 	 -8.25534 	 80.169 	 
C 	 22.8105 	 -9.56323 	 80.3477 	 
C 	 21.702 	 -10.4259 	 80.181 	 
C 	 20.4885 	 -9.76101 	 80.0797 	 
H 	 23.7841 	 -9.91236 	 80.6608 	 
C 	 21.8215 	 -11.9381 	 80.3087 	 
H 	 20.8436 	 -12.4265 	 80.083 	 
H 	 22.1142 	 -12.2715 	 81.3597 	 
C 	 22.8148 	 -12.7616 	 79.4322 	 
H 	 23.8151 	 -12.5601 	 79.7195 	 
H 	 22.8322 	 -12.5433 	 78.3479 	 
C 	 22.6564 	 -14.2483 	 79.5251 	 
H 	 23.3851 	 -14.7297 	 78.9135 	 
H 	 21.7356 	 -14.6356 	 79.071 	 
H 	 22.7073 	 -14.6594 	 80.5477 	 
H 	 15.6332 	 -11.1295 	 79.7734 	 
H 	 23.095 	 -7.42795 	 80.0542 	 
