34

S 	 -7.62447 	 36.1084 	 32.8381 	 
C 	 -7.27419 	 35.7767 	 31.1327 	 
C 	 -8.29427 	 36.3794 	 30.3833 	 
C 	 -9.42585 	 36.7854 	 31.1443 	 
C 	 -9.1639 	 36.646 	 32.4976 	 
H 	 -10.4011 	 37.0519 	 30.7755 	 
C 	 -8.1857 	 36.6219 	 28.8897 	 
H 	 -9.08828 	 36.7478 	 28.4082 	 
H 	 -7.72989 	 35.7673 	 28.4608 	 
C 	 -7.42801 	 37.8532 	 28.5359 	 
H 	 -7.69413 	 38.6887 	 29.1579 	 
H 	 -6.37005 	 37.6526 	 28.6791 	 
C 	 -7.62782 	 38.3596 	 27.0679 	 
H 	 -6.86685 	 39.0281 	 26.748 	 
H 	 -7.65801 	 37.5415 	 26.3537 	 
H 	 -8.5455 	 38.8671 	 27.0412 	 
S 	 -9.24309 	 38.8195 	 34.0819 	 
C 	 -10.4917 	 38.8973 	 35.3299 	 
C 	 -11.3933 	 37.8606 	 35.2681 	 
C 	 -11.0602 	 36.8506 	 34.311 	 
C 	 -9.89402 	 37.2218 	 33.6082 	 
H 	 -12.2357 	 37.7905 	 35.9514 	 
C 	 -11.9448 	 35.65 	 34.1484 	 
H 	 -12.1915 	 35.2901 	 35.1977 	 
H 	 -11.3196 	 34.8286 	 33.6225 	 
C 	 -13.1702 	 36.0201 	 33.2143 	 
H 	 -13.7376 	 35.0962 	 33.1288 	 
H 	 -12.7486 	 36.2216 	 32.284 	 
C 	 -14.1881 	 37.0583 	 33.7665 	 
H 	 -14.5144 	 36.7287 	 34.7437 	 
H 	 -15.1789 	 37.1729 	 33.1952 	 
H 	 -13.7253 	 38.0908 	 33.8554 	 
H 	 -6.3093 	 35.4718 	 30.7983 	 
H 	 -10.5785 	 39.7336 	 35.9418 	 
