34

S 	 -14.8766 	 39.2713 	 39.9101 	 
C 	 -14.9428 	 39.3281 	 38.172 	 
C 	 -14.6009 	 38.0788 	 37.6807 	 
C 	 -14.1185 	 37.1094 	 38.6083 	 
C 	 -14.2095 	 37.6413 	 39.9269 	 
H 	 -13.881 	 36.0825 	 38.3946 	 
C 	 -14.5036 	 37.7247 	 36.1947 	 
H 	 -13.6423 	 37.116 	 36.0699 	 
H 	 -14.233 	 38.6179 	 35.5941 	 
C 	 -15.8075 	 37.1533 	 35.5799 	 
H 	 -16.5791 	 37.7716 	 35.9642 	 
H 	 -15.806 	 37.0761 	 34.5122 	 
C 	 -16.1514 	 35.7983 	 36.1505 	 
H 	 -16.4257 	 35.8248 	 37.2412 	 
H 	 -16.9064 	 35.2656 	 35.6605 	 
H 	 -15.2761 	 35.2191 	 35.9988 	 
S 	 -13.7116 	 37.8032 	 42.4744 	 
C 	 -13.4451 	 36.4379 	 43.5109 	 
C 	 -13.677 	 35.2689 	 42.9121 	 
C 	 -14.0227 	 35.4773 	 41.5174 	 
C 	 -14.0653 	 36.838 	 41.152 	 
H 	 -13.6094 	 34.321 	 43.4521 	 
C 	 -14.0842 	 34.3454 	 40.5757 	 
H 	 -14.8281 	 34.6741 	 39.9014 	 
H 	 -14.5368 	 33.5889 	 41.2399 	 
C 	 -12.7871 	 33.7631 	 40.0451 	 
H 	 -11.9298 	 33.6902 	 40.6564 	 
H 	 -12.3331 	 34.3646 	 39.2302 	 
C 	 -13.1244 	 32.3846 	 39.3301 	 
H 	 -13.91 	 31.8731 	 39.7963 	 
H 	 -12.2663 	 31.7444 	 39.4978 	 
H 	 -13.1567 	 32.4195 	 38.2092 	 
H 	 -15.1028 	 40.3 	 37.6781 	 
H 	 -13.2176 	 36.5122 	 44.5704 	 
