34

S 	 -77.2057 	 48.9044 	 136.642 	 
C 	 -78.8067 	 48.1264 	 136.596 	 
C 	 -79.7791 	 49.1183 	 136.747 	 
C 	 -79.2245 	 50.4175 	 136.988 	 
C 	 -77.8442 	 50.4586 	 137.022 	 
H 	 -79.7437 	 51.3428 	 137.206 	 
C 	 -81.254 	 48.9986 	 136.827 	 
H 	 -81.5976 	 48.7692 	 137.816 	 
H 	 -81.5563 	 48.1139 	 136.182 	 
C 	 -82.1192 	 50.1462 	 136.279 	 
H 	 -82.0197 	 50.9958 	 136.927 	 
H 	 -81.6519 	 50.4761 	 135.344 	 
C 	 -83.6089 	 49.7905 	 136.16 	 
H 	 -84.0227 	 49.9875 	 137.203 	 
H 	 -84.0671 	 50.4682 	 135.444 	 
H 	 -83.8431 	 48.7319 	 135.907 	 
S 	 -75.796 	 52.0542 	 136.062 	 
C 	 -75.4863 	 53.6429 	 136.808 	 
C 	 -76.3379 	 53.8418 	 137.87 	 
C 	 -77.2038 	 52.7618 	 138.13 	 
C 	 -77.0699 	 51.68 	 137.244 	 
H 	 -76.3342 	 54.7518 	 138.43 	 
C 	 -78.2075 	 52.7437 	 139.356 	 
H 	 -77.5441 	 52.6795 	 140.277 	 
H 	 -78.9258 	 51.8838 	 139.327 	 
C 	 -79.0345 	 54.0328 	 139.535 	 
H 	 -78.4414 	 54.9282 	 139.582 	 
H 	 -79.419 	 53.9965 	 140.612 	 
C 	 -80.26 	 54.145 	 138.592 	 
H 	 -80.8345 	 54.9671 	 138.929 	 
H 	 -80.9406 	 53.265 	 138.54 	 
H 	 -79.9924 	 54.4521 	 137.617 	 
H 	 -79.0222 	 47.0575 	 136.563 	 
H 	 -74.8231 	 54.4736 	 136.461 	 
