34

S 	 49.394 	 7.56453 	 91.4577 	 
C 	 50.106 	 9.13749 	 90.9563 	 
C 	 50.7323 	 9.02917 	 89.7473 	 
C 	 50.3965 	 7.77468 	 89.1107 	 
C 	 49.6156 	 6.90058 	 89.8604 	 
H 	 50.5721 	 7.52693 	 88.1039 	 
C 	 51.3871 	 10.2 	 89.0578 	 
H 	 50.7728 	 11.0671 	 89.2893 	 
H 	 51.3153 	 10.1479 	 87.9859 	 
C 	 52.7556 	 10.594 	 89.5262 	 
H 	 53.1767 	 11.5135 	 89.0229 	 
H 	 52.6164 	 10.9522 	 90.5355 	 
C 	 53.7297 	 9.41879 	 89.4968 	 
H 	 53.3273 	 8.68088 	 90.1405 	 
H 	 53.871 	 8.81964 	 88.5695 	 
H 	 54.7285 	 9.56451 	 89.92 	 
S 	 49.4392 	 4.04941 	 90.0824 	 
C 	 48.4053 	 3.19646 	 88.9769 	 
C 	 47.7369 	 4.0682 	 88.2075 	 
C 	 48.0745 	 5.49495 	 88.3271 	 
C 	 48.9787 	 5.68356 	 89.4147 	 
H 	 47.1035 	 3.60899 	 87.5164 	 
C 	 47.6778 	 6.52257 	 87.2354 	 
H 	 47.5425 	 7.50318 	 87.5678 	 
H 	 46.6709 	 6.23216 	 86.8702 	 
C 	 48.5203 	 6.58076 	 85.9759 	 
H 	 48.5704 	 5.70441 	 85.3784 	 
H 	 49.516 	 6.74756 	 86.3829 	 
C 	 48.1334 	 7.72174 	 85.033 	 
H 	 47.0844 	 7.74512 	 84.7856 	 
H 	 48.6619 	 7.61181 	 84.1443 	 
H 	 48.3582 	 8.64108 	 85.3852 	 
H 	 50.4421 	 9.95883 	 91.627 	 
H 	 48.4167 	 2.0845 	 88.7565 	 
