34

S 	 -34.9504 	 46.6987 	 98.7652 	 
C 	 -35.6445 	 45.5389 	 97.6426 	 
C 	 -34.7442 	 45.152 	 96.6443 	 
C 	 -33.6639 	 46.0193 	 96.6306 	 
C 	 -33.6461 	 46.9984 	 97.5875 	 
H 	 -32.9238 	 46.0141 	 95.8153 	 
C 	 -35.1266 	 44.3075 	 95.4887 	 
H 	 -34.5891 	 44.7456 	 94.6872 	 
H 	 -36.2244 	 44.5149 	 95.3303 	 
C 	 -34.7783 	 42.7945 	 95.5269 	 
H 	 -33.7174 	 42.6232 	 95.2044 	 
H 	 -34.8816 	 42.2907 	 96.4861 	 
C 	 -35.6959 	 41.8737 	 94.6639 	 
H 	 -35.2367 	 40.9568 	 94.7478 	 
H 	 -36.693 	 41.9997 	 95.1505 	 
H 	 -35.702 	 42.2606 	 93.5891 	 
S 	 -33.2731 	 49.5834 	 96.7655 	 
C 	 -31.7091 	 50.3266 	 97.099 	 
C 	 -30.9652 	 49.6056 	 98.0657 	 
C 	 -31.5958 	 48.3613 	 98.3764 	 
C 	 -32.7953 	 48.1366 	 97.6691 	 
H 	 -30.0451 	 49.9838 	 98.3792 	 
C 	 -30.9848 	 47.5425 	 99.4599 	 
H 	 -29.8951 	 47.4399 	 99.2065 	 
H 	 -31.3714 	 46.5664 	 99.2497 	 
C 	 -31.2901 	 47.9639 	 100.925 	 
H 	 -31.225 	 47.1631 	 101.657 	 
H 	 -32.3647 	 48.1921 	 100.984 	 
C 	 -30.4127 	 49.1549 	 101.465 	 
H 	 -30.8502 	 49.4363 	 102.432 	 
H 	 -30.4552 	 49.9779 	 100.794 	 
H 	 -29.3984 	 48.8114 	 101.636 	 
H 	 -36.6861 	 45.1058 	 97.7524 	 
H 	 -31.3421 	 51.2737 	 96.6599 	 
