34

S 	 37.1486 	 -7.34653 	 71.4331 	 
C 	 37.2108 	 -5.63812 	 71.7646 	 
C 	 38.2108 	 -5.04104 	 70.9734 	 
C 	 38.6313 	 -5.93294 	 69.9381 	 
C 	 38.1739 	 -7.23787 	 70.0647 	 
H 	 39.4313 	 -5.82941 	 69.2543 	 
C 	 38.6823 	 -3.57724 	 71.0837 	 
H 	 37.9326 	 -2.84744 	 71.2983 	 
H 	 38.9305 	 -3.25783 	 70.018 	 
C 	 39.8793 	 -3.38004 	 72.0282 	 
H 	 39.4559 	 -3.64492 	 72.9971 	 
H 	 40.5904 	 -4.19086 	 71.7975 	 
C 	 40.596 	 -2.02221 	 71.9169 	 
H 	 41.0278 	 -1.97854 	 70.9172 	 
H 	 39.9225 	 -1.18797 	 72.0289 	 
H 	 41.4331 	 -1.7713 	 72.5915 	 
S 	 38.4201 	 -9.95064 	 69.945 	 
C 	 38.7817 	 -10.7246 	 68.4179 	 
C 	 38.9017 	 -9.81061 	 67.3768 	 
C 	 38.6368 	 -8.45123 	 67.7809 	 
C 	 38.4825 	 -8.34158 	 69.1756 	 
H 	 39.0416 	 -10.1134 	 66.4317 	 
C 	 38.5269 	 -7.42008 	 66.7587 	 
H 	 39.3338 	 -7.56103 	 66.0068 	 
H 	 38.6324 	 -6.38081 	 67.1766 	 
C 	 37.1793 	 -7.49082 	 66.0398 	 
H 	 36.4035 	 -7.13462 	 66.6553 	 
H 	 36.9785 	 -8.53412 	 65.8305 	 
C 	 37.2198 	 -6.5244 	 64.8393 	 
H 	 37.452 	 -5.58439 	 65.2347 	 
H 	 36.2498 	 -6.63987 	 64.3271 	 
H 	 38.0955 	 -6.7842 	 64.1736 	 
H 	 36.716 	 -5.10786 	 72.602 	 
H 	 38.7839 	 -11.8467 	 68.23 	 
