34

S 	 29.8231 	 32.4796 	 54.3517 	 
C 	 30.1059 	 31.4255 	 52.9877 	 
C 	 30.417 	 30.0997 	 53.3931 	 
C 	 30.4459 	 29.9788 	 54.7889 	 
C 	 30.1452 	 31.1247 	 55.4775 	 
H 	 30.7379 	 29.0709 	 55.3127 	 
C 	 30.6806 	 28.9599 	 52.4358 	 
H 	 30.4815 	 29.2727 	 51.4187 	 
H 	 29.9345 	 28.1379 	 52.4565 	 
C 	 32.1455 	 28.5072 	 52.7289 	 
H 	 32.8033 	 29.3401 	 52.8231 	 
H 	 32.1909 	 28.0615 	 53.6934 	 
C 	 32.6287 	 27.3793 	 51.759 	 
H 	 33.5888 	 27.0684 	 52.0769 	 
H 	 31.9067 	 26.5837 	 51.7894 	 
H 	 32.6351 	 27.6937 	 50.7086 	 
S 	 28.8669 	 32.2177 	 57.6762 	 
C 	 29.4651 	 31.8239 	 59.2661 	 
C 	 30.7304 	 31.2745 	 59.1976 	 
C 	 31.1348 	 30.9977 	 57.8611 	 
C 	 30.1418 	 31.3091 	 56.9346 	 
H 	 31.2425 	 31.0016 	 60.1121 	 
C 	 32.474 	 30.5096 	 57.5692 	 
H 	 32.2823 	 29.5175 	 57.1622 	 
H 	 33.024 	 30.3009 	 58.4979 	 
C 	 33.3963 	 31.3204 	 56.5491 	 
H 	 33.4437 	 32.3453 	 56.7913 	 
H 	 32.9631 	 31.2012 	 55.56 	 
C 	 34.8552 	 30.6648 	 56.484 	 
H 	 34.8508 	 29.8577 	 55.7945 	 
H 	 35.1862 	 30.2901 	 57.5015 	 
H 	 35.6176 	 31.3666 	 56.1312 	 
H 	 30.0833 	 31.698 	 51.9552 	 
H 	 28.9735 	 32.2743 	 60.0761 	 
