34

S 	 -5.32958 	 74.9656 	 47.7245 	 
C 	 -3.88553 	 75.7428 	 47.1184 	 
C 	 -4.07548 	 76.255 	 45.8487 	 
C 	 -5.38379 	 75.9241 	 45.3376 	 
C 	 -6.24897 	 75.2744 	 46.2423 	 
H 	 -5.66058 	 76.0752 	 44.2868 	 
C 	 -2.85598 	 76.738 	 45.0246 	 
H 	 -2.77593 	 75.9829 	 44.25 	 
H 	 -1.9801 	 76.5515 	 45.6497 	 
C 	 -2.77525 	 78.1972 	 44.535 	 
H 	 -3.67097 	 78.2704 	 43.9462 	 
H 	 -2.78735 	 78.8464 	 45.3695 	 
C 	 -1.50002 	 78.4176 	 43.6522 	 
H 	 -1.76384 	 77.9818 	 42.6779 	 
H 	 -1.31891 	 79.4469 	 43.4479 	 
H 	 -0.695911 	 77.8389 	 43.9384 	 
S 	 -7.22722 	 73.036 	 45.4203 	 
C 	 -8.94367 	 72.7649 	 45.4767 	 
C 	 -9.70157 	 73.8697 	 45.6608 	 
C 	 -8.78623 	 74.9355 	 45.985 	 
C 	 -7.49113 	 74.5886 	 45.9039 	 
H 	 -10.7999 	 73.7946 	 45.8472 	 
C 	 -9.35014 	 76.2564 	 46.4258 	 
H 	 -10.1603 	 76.4867 	 45.7289 	 
H 	 -8.66932 	 77.1038 	 46.2522 	 
C 	 -9.9198 	 76.4265 	 47.8573 	 
H 	 -9.30552 	 76.0674 	 48.7173 	 
H 	 -10.9718 	 76.0193 	 47.9381 	 
C 	 -10.1073 	 77.977 	 48.1927 	 
H 	 -9.19944 	 78.5034 	 48.3307 	 
H 	 -10.7304 	 78.1651 	 49.0821 	 
H 	 -10.6155 	 78.6229 	 47.4367 	 
H 	 -2.9688 	 75.9343 	 47.6669 	 
H 	 -9.43445 	 71.7834 	 45.2721 	 
