34

S 	 -3.14276 	 74.3526 	 51.5445 	 
C 	 -3.11982 	 75.3258 	 52.9414 	 
C 	 -2.66144 	 76.6312 	 52.7247 	 
C 	 -2.38803 	 76.7661 	 51.3144 	 
C 	 -2.67532 	 75.701 	 50.4928 	 
H 	 -1.97421 	 77.5406 	 50.7914 	 
C 	 -2.55607 	 77.7413 	 53.7196 	 
H 	 -1.77045 	 78.4399 	 53.4425 	 
H 	 -2.28555 	 77.1869 	 54.575 	 
C 	 -3.89674 	 78.5557 	 53.6714 	 
H 	 -3.76907 	 79.3942 	 52.9617 	 
H 	 -4.76241 	 77.9292 	 53.4153 	 
C 	 -4.13962 	 79.159 	 55.0289 	 
H 	 -3.30669 	 79.753 	 55.4728 	 
H 	 -5.08271 	 79.7073 	 55.0006 	 
H 	 -4.36585 	 78.318 	 55.6395 	 
S 	 -1.09021 	 74.9771 	 48.3192 	 
C 	 -1.73725 	 75.139 	 46.6819 	 
C 	 -2.98837 	 75.6306 	 46.7449 	 
C 	 -3.49296 	 75.9956 	 48.0557 	 
C 	 -2.62693 	 75.538 	 49.0459 	 
H 	 -3.40908 	 75.8149 	 45.782 	 
C 	 -4.88435 	 76.5618 	 48.2374 	 
H 	 -4.9318 	 77.5701 	 47.7627 	 
H 	 -4.95161 	 76.9451 	 49.2385 	 
C 	 -6.1004 	 75.6937 	 47.975 	 
H 	 -5.90696 	 74.7676 	 48.4846 	 
H 	 -6.22033 	 75.438 	 46.9269 	 
C 	 -7.51932 	 76.189 	 48.5146 	 
H 	 -7.86597 	 77.0855 	 48.0916 	 
H 	 -7.53455 	 76.4364 	 49.5532 	 
H 	 -8.28732 	 75.3897 	 48.4159 	 
H 	 -3.43162 	 75.0117 	 53.9109 	 
H 	 -1.15084 	 74.9262 	 45.7993 	 
