34

S 	 15.2679 	 -8.86421 	 82.8611 	 
C 	 14.6962 	 -10.3658 	 82.258 	 
C 	 15.4549 	 -11.428 	 82.782 	 
C 	 16.2939 	 -11.0929 	 83.8926 	 
C 	 16.3324 	 -9.72724 	 84.0003 	 
H 	 16.9104 	 -11.8175 	 84.4542 	 
C 	 15.2909 	 -12.8493 	 82.2776 	 
H 	 15.4899 	 -12.6426 	 81.2453 	 
H 	 14.2081 	 -12.9998 	 82.4331 	 
C 	 16.2766 	 -13.9441 	 82.8768 	 
H 	 17.2203 	 -13.7662 	 82.5424 	 
H 	 16.2347 	 -13.9342 	 84.0354 	 
C 	 16.1822 	 -15.4025 	 82.3424 	 
H 	 15.1949 	 -15.7882 	 82.4798 	 
H 	 16.4398 	 -15.53 	 81.267 	 
H 	 16.8702 	 -16.054 	 82.8001 	 
S 	 16.2971 	 -8.37453 	 86.4363 	 
C 	 17.8959 	 -7.92431 	 87.187 	 
C 	 18.9166 	 -8.26653 	 86.4059 	 
C 	 18.523 	 -9.01404 	 85.2295 	 
C 	 17.136 	 -9.11442 	 85.0434 	 
H 	 19.9397 	 -8.0109 	 86.7581 	 
C 	 19.5912 	 -9.51022 	 84.2138 	 
H 	 19.9721 	 -8.63979 	 83.6513 	 
H 	 19.011 	 -10.1129 	 83.45 	 
C 	 20.7155 	 -10.3547 	 84.6999 	 
H 	 20.2171 	 -11.0629 	 85.3197 	 
H 	 21.3257 	 -9.82837 	 85.4246 	 
C 	 21.5342 	 -11.0071 	 83.5805 	 
H 	 22.332 	 -11.42 	 84.0564 	 
H 	 21.9379 	 -10.375 	 82.788 	 
H 	 20.9794 	 -11.9153 	 83.3124 	 
H 	 13.8725 	 -10.3069 	 81.5392 	 
H 	 17.9786 	 -7.45913 	 88.145 	 
