34

S 	 -34.9126 	 58.0794 	 107.474 	 
C 	 -33.2837 	 57.4693 	 106.977 	 
C 	 -32.4676 	 57.4294 	 108.081 	 
C 	 -33.0573 	 57.9592 	 109.263 	 
C 	 -34.3479 	 58.4063 	 109.098 	 
H 	 -32.6299 	 58.1648 	 110.276 	 
C 	 -31.0738 	 56.9274 	 108.063 	 
H 	 -30.3337 	 57.7265 	 107.93 	 
H 	 -31.074 	 56.3338 	 107.109 	 
C 	 -30.7204 	 55.8816 	 109.228 	 
H 	 -30.708 	 56.313 	 110.194 	 
H 	 -31.6753 	 55.2708 	 109.271 	 
C 	 -29.3934 	 55.2335 	 108.993 	 
H 	 -28.6473 	 55.8977 	 109.32 	 
H 	 -29.4572 	 54.3001 	 109.516 	 
H 	 -29.2438 	 55.1164 	 107.937 	 
S 	 -35.8196 	 60.663 	 109.625 	 
C 	 -36.3777 	 60.9065 	 111.21 	 
C 	 -36.2777 	 59.7841 	 112.004 	 
C 	 -35.4812 	 58.8216 	 111.393 	 
C 	 -35.1366 	 59.0827 	 110.064 	 
H 	 -36.7383 	 59.7306 	 113.026 	 
C 	 -34.9745 	 57.6043 	 112.093 	 
H 	 -33.8639 	 57.6907 	 112.156 	 
H 	 -35.2871 	 56.7233 	 111.477 	 
C 	 -35.6085 	 57.3418 	 113.539 	 
H 	 -36.7022 	 57.4197 	 113.554 	 
H 	 -35.2569 	 58.1562 	 114.15 	 
C 	 -35.1129 	 56.1052 	 114.272 	 
H 	 -35.2684 	 55.2171 	 113.746 	 
H 	 -35.6836 	 55.994 	 115.215 	 
H 	 -34.0581 	 56.2234 	 114.4 	 
H 	 -33.0425 	 57.1317 	 105.982 	 
H 	 -36.7662 	 61.8241 	 111.557 	 
