34

S 	 -37.9246 	 65.9386 	 142.552 	 
C 	 -38.674 	 66.1586 	 140.968 	 
C 	 -37.7379 	 66.6518 	 140.048 	 
C 	 -36.6876 	 67.2231 	 140.805 	 
C 	 -36.5684 	 66.8718 	 142.13 	 
H 	 -35.951 	 67.8783 	 140.271 	 
C 	 -37.9746 	 66.8111 	 138.574 	 
H 	 -37.0248 	 66.9744 	 138.214 	 
H 	 -38.4794 	 67.7127 	 138.364 	 
C 	 -38.6333 	 65.6164 	 137.926 	 
H 	 -39.5492 	 65.2965 	 138.379 	 
H 	 -38.7645 	 65.7824 	 136.882 	 
C 	 -37.6102 	 64.4294 	 138.043 	 
H 	 -37.4638 	 64.0628 	 139.046 	 
H 	 -38.0238 	 63.6139 	 137.514 	 
H 	 -36.6674 	 64.7898 	 137.642 	 
S 	 -36.1278 	 68.3882 	 144.315 	 
C 	 -34.5193 	 68.6597 	 144.93 	 
C 	 -33.6913 	 67.7357 	 144.315 	 
C 	 -34.2317 	 66.9676 	 143.233 	 
C 	 -35.5754 	 67.2337 	 143.116 	 
H 	 -32.6774 	 67.5772 	 144.629 	 
C 	 -33.447 	 65.9081 	 142.518 	 
H 	 -34.0302 	 65.2281 	 141.966 	 
H 	 -33.0588 	 65.299 	 143.396 	 
C 	 -32.2791 	 66.4207 	 141.679 	 
H 	 -31.6534 	 65.6159 	 141.4 	 
H 	 -31.6035 	 67.0472 	 142.387 	 
C 	 -32.5752 	 67.379 	 140.473 	 
H 	 -33.0795 	 68.3575 	 140.722 	 
H 	 -33.3112 	 66.8778 	 139.813 	 
H 	 -31.6817 	 67.4963 	 139.948 	 
H 	 -39.4735 	 65.5924 	 140.655 	 
H 	 -34.2117 	 69.3023 	 145.782 	 
