34

S 	 -8.19137 	 51.1022 	 44.8293 	 
C 	 -9.63613 	 51.5048 	 44.0041 	 
C 	 -10.3901 	 50.4759 	 43.6513 	 
C 	 -9.82347 	 49.2464 	 44.1091 	 
C 	 -8.59419 	 49.4018 	 44.7447 	 
H 	 -10.229 	 48.2976 	 44.0842 	 
C 	 -11.6938 	 50.6271 	 42.9362 	 
H 	 -11.5555 	 50.1201 	 41.9635 	 
H 	 -11.7661 	 51.6688 	 42.624 	 
C 	 -12.9179 	 50.1734 	 43.5743 	 
H 	 -13.7617 	 50.2357 	 42.9542 	 
H 	 -12.7761 	 49.1379 	 43.7126 	 
C 	 -13.1004 	 50.7909 	 45.0065 	 
H 	 -12.1683 	 50.8453 	 45.6109 	 
H 	 -13.522 	 51.8451 	 44.8512 	 
H 	 -13.8669 	 50.2514 	 45.5351 	 
S 	 -6.1051 	 48.1222 	 44.864 	 
C 	 -5.81783 	 46.8959 	 46.0666 	 
C 	 -7.0315 	 46.62 	 46.7205 	 
C 	 -8.1034 	 47.4808 	 46.3664 	 
C 	 -7.75678 	 48.3795 	 45.3902 	 
H 	 -6.94739 	 45.7137 	 47.2906 	 
C 	 -9.48125 	 47.2789 	 46.9596 	 
H 	 -9.39891 	 46.406 	 47.5145 	 
H 	 -10.0973 	 47.0894 	 46.086 	 
C 	 -9.99551 	 48.3777 	 47.8025 	 
H 	 -10.0289 	 49.2373 	 47.1841 	 
H 	 -9.22868 	 48.6624 	 48.4697 	 
C 	 -11.3261 	 48.12 	 48.4807 	 
H 	 -11.331 	 47.1286 	 48.8965 	 
H 	 -12.1597 	 47.9995 	 47.7912 	 
H 	 -11.5747 	 48.8107 	 49.3314 	 
H 	 -9.97551 	 52.5153 	 43.9014 	 
H 	 -4.97972 	 46.342 	 46.1117 	 
