34

S 	 -67.8327 	 52.3314 	 135.074 	 
C 	 -68.7136 	 53.8005 	 135.671 	 
C 	 -69.9279 	 53.4579 	 136.24 	 
C 	 -70.2481 	 52.0518 	 136.17 	 
C 	 -69.2095 	 51.3355 	 135.496 	 
H 	 -71.0942 	 51.5423 	 136.557 	 
C 	 -70.8852 	 54.4577 	 136.969 	 
H 	 -70.4342 	 55.3846 	 137.032 	 
H 	 -71.0797 	 54.096 	 137.978 	 
C 	 -72.2396 	 54.6254 	 136.236 	 
H 	 -72.1047 	 54.9303 	 135.22 	 
H 	 -72.6851 	 53.6017 	 136.191 	 
C 	 -73.143 	 55.43 	 137.15 	 
H 	 -73.2912 	 54.9141 	 138.126 	 
H 	 -72.9173 	 56.4661 	 137.305 	 
H 	 -74.098 	 55.3645 	 136.629 	 
S 	 -68.1033 	 48.9338 	 136.325 	 
C 	 -68.7989 	 47.4346 	 135.856 	 
C 	 -69.8652 	 47.6552 	 135 	 
C 	 -70.1326 	 49.0071 	 134.699 	 
C 	 -69.3043 	 49.8721 	 135.407 	 
H 	 -70.3271 	 46.8396 	 134.563 	 
C 	 -71.1311 	 49.3708 	 133.633 	 
H 	 -71.1039 	 48.6122 	 132.817 	 
H 	 -70.5842 	 50.1712 	 133.164 	 
C 	 -72.5073 	 49.8776 	 133.969 	 
H 	 -72.3914 	 50.8435 	 134.415 	 
H 	 -72.8125 	 49.1593 	 134.782 	 
C 	 -73.5754 	 50.0342 	 132.871 	 
H 	 -73.8957 	 49.0569 	 132.47 	 
H 	 -73.1441 	 50.6407 	 132.042 	 
H 	 -74.4702 	 50.4782 	 133.292 	 
H 	 -68.1926 	 54.7341 	 135.595 	 
H 	 -68.4616 	 46.4425 	 136.075 	 
