34

S 	 11.2579 	 -8.91774 	 87.2348 	 
C 	 11.5284 	 -8.1901 	 88.8049 	 
C 	 10.5962 	 -8.64876 	 89.7384 	 
C 	 9.51242 	 -9.35279 	 89.0864 	 
C 	 9.68138 	 -9.53481 	 87.7667 	 
H 	 8.59374 	 -9.87404 	 89.48 	 
C 	 10.7386 	 -8.60005 	 91.1646 	 
H 	 9.87045 	 -8.16529 	 91.631 	 
H 	 11.4938 	 -7.87528 	 91.488 	 
C 	 11.0817 	 -9.90089 	 91.9444 	 
H 	 10.3032 	 -10.6088 	 91.7531 	 
H 	 12.0138 	 -10.3742 	 91.6569 	 
C 	 11.1933 	 -9.63756 	 93.433 	 
H 	 11.1585 	 -10.5312 	 94.1284 	 
H 	 12.0397 	 -9.09771 	 93.7229 	 
H 	 10.3982 	 -9.00345 	 93.7716 	 
S 	 9.21114 	 -11.3733 	 85.7173 	 
C 	 7.67633 	 -11.4178 	 84.9754 	 
C 	 6.79714 	 -10.445 	 85.4667 	 
C 	 7.40734 	 -9.59838 	 86.4177 	 
C 	 8.71498 	 -10.0339 	 86.7892 	 
H 	 5.85654 	 -10.3635 	 84.9535 	 
C 	 6.79996 	 -8.3326 	 86.8249 	 
H 	 6.12102 	 -8.13999 	 86.0373 	 
H 	 7.53501 	 -7.54496 	 86.7087 	 
C 	 5.97533 	 -8.4717 	 88.0862 	 
H 	 6.73982 	 -8.53925 	 88.8069 	 
H 	 5.39687 	 -9.36628 	 88.1868 	 
C 	 5.07812 	 -7.20374 	 88.4389 	 
H 	 5.69471 	 -6.28161 	 88.3377 	 
H 	 4.68188 	 -7.13262 	 89.4571 	 
H 	 4.20575 	 -7.06114 	 87.7958 	 
H 	 12.4759 	 -7.69654 	 88.9634 	 
H 	 7.37782 	 -12.1253 	 84.2037 	 
