34

S 	 -4.28009 	 8.15095 	 84.5836 	 
C 	 -2.98924 	 7.0143 	 84.3436 	 
C 	 -3.02279 	 6.37675 	 83.17 	 
C 	 -3.98159 	 6.99673 	 82.3012 	 
C 	 -4.69291 	 8.06534 	 82.924 	 
H 	 -4.16622 	 6.66019 	 81.325 	 
C 	 -2.07362 	 5.2446 	 82.8227 	 
H 	 -1.25097 	 5.31162 	 83.6221 	 
H 	 -1.51425 	 5.40373 	 81.9233 	 
C 	 -2.53948 	 3.80891 	 83.0068 	 
H 	 -2.73833 	 3.84934 	 84.0563 	 
H 	 -3.46285 	 3.59653 	 82.3973 	 
C 	 -1.53312 	 2.7299 	 82.5833 	 
H 	 -0.47429 	 2.89458 	 82.9775 	 
H 	 -1.89121 	 1.80432 	 82.9832 	 
H 	 -1.42282 	 2.60397 	 81.4856 	 
S 	 -6.9645 	 9.47084 	 83.2512 	 
C 	 -7.53123 	 10.5268 	 82.0243 	 
C 	 -6.55592 	 10.7938 	 81.1198 	 
C 	 -5.47767 	 9.83838 	 81.1818 	 
C 	 -5.62759 	 9.00126 	 82.2851 	 
H 	 -6.64009 	 11.7189 	 80.4986 	 
C 	 -4.3363 	 9.7536 	 80.213 	 
H 	 -4.81168 	 9.96544 	 79.2874 	 
H 	 -3.95599 	 8.76042 	 79.992 	 
C 	 -3.22489 	 10.7345 	 80.4553 	 
H 	 -2.85828 	 10.6136 	 81.4672 	 
H 	 -3.58758 	 11.7656 	 80.3724 	 
C 	 -1.97213 	 10.469 	 79.5891 	 
H 	 -1.18516 	 11.2172 	 79.8333 	 
H 	 -2.39742 	 10.4673 	 78.5622 	 
H 	 -1.5453 	 9.45922 	 79.7398 	 
H 	 -2.2012 	 6.77848 	 85.1139 	 
H 	 -8.45339 	 11.1548 	 82.053 	 
