34

S 	 -106.926 	 53.1387 	 122.634 	 
C 	 -107.86 	 51.7058 	 122.555 	 
C 	 -107.219 	 50.6914 	 121.833 	 
C 	 -106.054 	 51.2105 	 121.137 	 
C 	 -105.863 	 52.5467 	 121.39 	 
H 	 -105.468 	 50.7114 	 120.387 	 
C 	 -107.779 	 49.3326 	 121.526 	 
H 	 -108.74 	 49.3144 	 121.857 	 
H 	 -107.111 	 48.55 	 121.989 	 
C 	 -108 	 49.1025 	 120.1 	 
H 	 -108.552 	 49.941 	 119.737 	 
H 	 -107.021 	 49.094 	 119.573 	 
C 	 -108.858 	 47.8332 	 119.836 	 
H 	 -109.774 	 47.7687 	 120.44 	 
H 	 -109.206 	 47.8312 	 118.816 	 
H 	 -108.237 	 46.9576 	 119.766 	 
S 	 -103.509 	 53.7839 	 121.978 	 
C 	 -102.589 	 54.5382 	 120.724 	 
C 	 -103.043 	 54.1548 	 119.491 	 
C 	 -104.238 	 53.4092 	 119.563 	 
C 	 -104.673 	 53.2169 	 120.863 	 
H 	 -102.542 	 54.5327 	 118.606 	 
C 	 -105.046 	 53.0313 	 118.332 	 
H 	 -105.132 	 53.8896 	 117.7 	 
H 	 -106.06 	 52.9983 	 118.683 	 
C 	 -104.646 	 51.7299 	 117.583 	 
H 	 -105.453 	 51.4502 	 116.94 	 
H 	 -104.613 	 50.764 	 118.197 	 
C 	 -103.376 	 51.9365 	 116.712 	 
H 	 -103.555 	 52.7966 	 116.174 	 
H 	 -103.131 	 51.0616 	 116.076 	 
H 	 -102.533 	 51.9594 	 117.351 	 
H 	 -108.818 	 51.5617 	 122.998 	 
H 	 -101.731 	 55.1166 	 120.788 	 
