34

S 	 -4.1363 	 -19.2983 	 83.7015 	 
C 	 -2.61529 	 -19.086 	 82.8418 	 
C 	 -1.75628 	 -18.2722 	 83.5844 	 
C 	 -2.24954 	 -17.9254 	 84.8848 	 
C 	 -3.54373 	 -18.4862 	 85.1501 	 
H 	 -1.78315 	 -17.3804 	 85.6575 	 
C 	 -0.33505 	 -17.9145 	 83.206 	 
H 	 -0.393003 	 -16.8599 	 82.8212 	 
H 	 -0.0921785 	 -18.6417 	 82.4702 	 
C 	 0.693309 	 -17.9058 	 84.3471 	 
H 	 0.596318 	 -17.1552 	 85.0419 	 
H 	 0.580045 	 -18.7948 	 84.9683 	 
C 	 2.06394 	 -17.8002 	 83.8723 	 
H 	 2.24201 	 -18.1222 	 82.8872 	 
H 	 2.55231 	 -16.7354 	 84.0009 	 
H 	 2.75227 	 -18.3131 	 84.5414 	 
S 	 -4.92796 	 -19.9667 	 86.8342 	 
C 	 -5.63781 	 -19.2323 	 88.2999 	 
C 	 -5.48468 	 -17.8722 	 88.3756 	 
C 	 -4.66787 	 -17.4389 	 87.223 	 
C 	 -4.28443 	 -18.4623 	 86.3435 	 
H 	 -5.99807 	 -17.3006 	 89.1864 	 
C 	 -4.48823 	 -15.9427 	 87.0069 	 
H 	 -3.39756 	 -15.8346 	 86.8755 	 
H 	 -4.73096 	 -15.4241 	 87.8947 	 
C 	 -5.25475 	 -15.3646 	 85.8168 	 
H 	 -6.23587 	 -15.8346 	 85.6857 	 
H 	 -4.88753 	 -15.6865 	 84.902 	 
C 	 -5.42068 	 -13.8627 	 85.6613 	 
H 	 -4.42468 	 -13.328 	 85.801 	 
H 	 -6.28839 	 -13.5263 	 86.3485 	 
H 	 -5.7906 	 -13.535 	 84.6844 	 
H 	 -2.43296 	 -19.4102 	 81.8123 	 
H 	 -6.35054 	 -19.7955 	 88.9103 	 
