34

S 	 -52.8511 	 42.8506 	 108.004 	 
C 	 -51.8917 	 43.9202 	 109.025 	 
C 	 -52.2022 	 45.2194 	 108.797 	 
C 	 -53.1094 	 45.3813 	 107.695 	 
C 	 -53.6698 	 44.1589 	 107.313 	 
H 	 -53.5986 	 46.2186 	 107.262 	 
C 	 -51.804 	 46.4031 	 109.641 	 
H 	 -51.9883 	 46.0218 	 110.667 	 
H 	 -52.3667 	 47.3241 	 109.635 	 
C 	 -50.2926 	 46.7097 	 109.472 	 
H 	 -49.7305 	 45.7246 	 109.579 	 
H 	 -50.1548 	 46.972 	 108.469 	 
C 	 -49.6357 	 47.8251 	 110.343 	 
H 	 -50.1741 	 48.8004 	 110.208 	 
H 	 -49.5258 	 47.6144 	 111.442 	 
H 	 -48.5777 	 48.09 	 110.149 	 
S 	 -54.1983 	 44.4715 	 104.618 	 
C 	 -55.8473 	 44.4315 	 104.072 	 
C 	 -56.6668 	 43.9471 	 105.096 	 
C 	 -56.0373 	 43.8036 	 106.34 	 
C 	 -54.645 	 44.0239 	 106.252 	 
H 	 -57.6993 	 43.6717 	 104.865 	 
C 	 -56.7549 	 43.194 	 107.522 	 
H 	 -56.0016 	 42.7864 	 108.226 	 
H 	 -57.2914 	 42.2508 	 107.246 	 
C 	 -57.7918 	 44.1612 	 108.197 	 
H 	 -58.3785 	 43.6085 	 108.936 	 
H 	 -58.4856 	 44.3629 	 107.391 	 
C 	 -57.2144 	 45.3949 	 108.899 	 
H 	 -57.072 	 46.2385 	 108.294 	 
H 	 -56.2338 	 45.098 	 109.345 	 
H 	 -57.9057 	 45.7063 	 109.711 	 
H 	 -51.0332 	 43.5095 	 109.673 	 
H 	 -56.0723 	 44.7083 	 103.072 	 
