34

S 	 54.7718 	 8.91058 	 76.5139 	 
C 	 55.4797 	 10.4031 	 77.0659 	 
C 	 56.021 	 11.0664 	 75.9759 	 
C 	 56.0609 	 10.3492 	 74.733 	 
C 	 55.4174 	 9.09842 	 74.9126 	 
H 	 56.4952 	 10.6368 	 73.8013 	 
C 	 56.4196 	 12.5144 	 75.9067 	 
H 	 56.2744 	 13.052 	 76.8132 	 
H 	 55.8953 	 12.9124 	 75.0485 	 
C 	 57.9478 	 12.6284 	 75.56 	 
H 	 58.3899 	 12.0426 	 76.2904 	 
H 	 58.177 	 12.1297 	 74.567 	 
C 	 58.483 	 14.128 	 75.5423 	 
H 	 58.0989 	 14.6734 	 76.4657 	 
H 	 59.5477 	 14.1317 	 75.5232 	 
H 	 58.0341 	 14.7786 	 74.7302 	 
S 	 53.3614 	 7.68305 	 73.7581 	 
C 	 53.4327 	 7.11104 	 72.1263 	 
C 	 54.7303 	 7.20714 	 71.6529 	 
C 	 55.6042 	 7.91161 	 72.5623 	 
C 	 54.9557 	 8.31027 	 73.7653 	 
H 	 54.8356 	 6.87497 	 70.7172 	 
C 	 57.111 	 7.9614 	 72.226 	 
H 	 57.4669 	 7.03891 	 71.746 	 
H 	 57.544 	 7.96709 	 73.2547 	 
C 	 57.7741 	 9.2323 	 71.6008 	 
H 	 58.8935 	 9.17239 	 71.4871 	 
H 	 57.7981 	 10.0693 	 72.2862 	 
C 	 57.1989 	 9.74018 	 70.2354 	 
H 	 57.405 	 8.96013 	 69.487 	 
H 	 57.6287 	 10.6676 	 69.9059 	 
H 	 56.1589 	 9.76927 	 70.2136 	 
H 	 55.4035 	 10.8862 	 78.0678 	 
H 	 52.5691 	 6.91631 	 71.4578 	 
