34

S 	 -43.5557 	 49.7174 	 102.306 	 
C 	 -44.1172 	 50.5724 	 103.733 	 
C 	 -44.7803 	 51.735 	 103.429 	 
C 	 -44.8365 	 51.8837 	 102.025 	 
C 	 -44.3293 	 50.8012 	 101.285 	 
H 	 -45.3197 	 52.7084 	 101.536 	 
C 	 -45.4667 	 52.7269 	 104.376 	 
H 	 -45.0421 	 53.7498 	 104.232 	 
H 	 -45.2496 	 52.4194 	 105.409 	 
C 	 -46.9857 	 52.8865 	 104.358 	 
H 	 -47.2163 	 53.3723 	 105.272 	 
H 	 -47.3772 	 53.5467 	 103.521 	 
C 	 -47.6538 	 51.4405 	 104.318 	 
H 	 -48.6444 	 51.5867 	 104.836 	 
H 	 -47.8439 	 51.1595 	 103.252 	 
H 	 -47.0305 	 50.6118 	 104.776 	 
S 	 -44.8821 	 48.9741 	 99.3227 	 
C 	 -44.7127 	 49.2861 	 97.6242 	 
C 	 -44.2795 	 50.5466 	 97.4689 	 
C 	 -44.0174 	 51.2892 	 98.6782 	 
C 	 -44.279 	 50.5276 	 99.8141 	 
H 	 -44.1373 	 51.0183 	 96.5055 	 
C 	 -43.7454 	 52.8252 	 98.6543 	 
H 	 -42.8152 	 53.002 	 98.0702 	 
H 	 -43.5874 	 53.2538 	 99.6385 	 
C 	 -44.8195 	 53.7501 	 98.0521 	 
H 	 -45.7292 	 53.3554 	 98.572 	 
H 	 -44.7925 	 53.3461 	 97.0379 	 
C 	 -44.5601 	 55.2783 	 98.1672 	 
H 	 -43.5145 	 55.5325 	 97.936 	 
H 	 -44.6103 	 55.5131 	 99.166 	 
H 	 -45.1764 	 55.8449 	 97.6377 	 
H 	 -44.081 	 50.2102 	 104.727 	 
H 	 -44.9868 	 48.61 	 96.8272 	 
