34

S 	 -33.0044 	 43.3833 	 93.2977 	 
C 	 -33.8056 	 41.7681 	 93.4553 	 
C 	 -32.9072 	 40.7713 	 93.1483 	 
C 	 -31.5842 	 41.2978 	 92.9349 	 
C 	 -31.4283 	 42.6573 	 93.0431 	 
H 	 -30.7058 	 40.7035 	 92.7971 	 
C 	 -33.3304 	 39.3282 	 93.0664 	 
H 	 -33.5512 	 38.9876 	 94.0893 	 
H 	 -32.4875 	 38.8831 	 92.5154 	 
C 	 -34.5654 	 39.1741 	 92.2446 	 
H 	 -35.2981 	 39.7855 	 92.6491 	 
H 	 -34.4409 	 39.6367 	 91.3068 	 
C 	 -35.0107 	 37.7147 	 92.0641 	 
H 	 -34.3906 	 37.1207 	 91.4136 	 
H 	 -34.9989 	 37.1298 	 92.9483 	 
H 	 -35.9945 	 37.5934 	 91.6489 	 
S 	 -28.7991 	 42.6069 	 92.3025 	 
C 	 -27.7511 	 43.8477 	 92.964 	 
C 	 -28.4606 	 44.9052 	 93.4463 	 
C 	 -29.8552 	 44.7497 	 93.3378 	 
C 	 -30.1952 	 43.4138 	 92.9808 	 
H 	 -27.9864 	 45.8303 	 93.7835 	 
C 	 -30.807 	 45.7631 	 93.8812 	 
H 	 -30.2702 	 46.2882 	 94.6029 	 
H 	 -31.6304 	 45.3899 	 94.3756 	 
C 	 -31.2833 	 46.6559 	 92.6806 	 
H 	 -32.1496 	 47.2365 	 92.9953 	 
H 	 -31.5761 	 46.1063 	 91.7953 	 
C 	 -30.127 	 47.5926 	 92.2271 	 
H 	 -29.3268 	 47.0449 	 91.626 	 
H 	 -29.796 	 48.0793 	 93.1558 	 
H 	 -30.6364 	 48.2933 	 91.5448 	 
H 	 -34.8295 	 41.5384 	 93.6664 	 
H 	 -26.7024 	 44.0921 	 92.7328 	 
