34

S 	 4.15596 	 -23.5407 	 60.364 	 
C 	 2.78488 	 -24.6019 	 60.0318 	 
C 	 3.15154 	 -25.9007 	 60.152 	 
C 	 4.52816 	 -26.1042 	 60.4388 	 
C 	 5.20612 	 -24.9257 	 60.7868 	 
H 	 5.01294 	 -27.0405 	 60.4455 	 
C 	 2.22255 	 -26.971 	 59.8413 	 
H 	 2.77575 	 -27.6789 	 59.1729 	 
H 	 1.40157 	 -26.5127 	 59.267 	 
C 	 1.51198 	 -27.6019 	 61.0916 	 
H 	 2.31155 	 -27.7881 	 61.8385 	 
H 	 0.89482 	 -26.8591 	 61.5708 	 
C 	 0.865569 	 -28.9761 	 60.7586 	 
H 	 0.538045 	 -29.403 	 61.6799 	 
H 	 -0.0931598 	 -28.9063 	 60.2311 	 
H 	 1.53489 	 -29.6253 	 60.2117 	 
S 	 7.61781 	 -24.2211 	 59.6167 	 
C 	 9.0945 	 -24.5496 	 60.472 	 
C 	 8.88553 	 -25.1181 	 61.7543 	 
C 	 7.50475 	 -25.2809 	 62.0435 	 
C 	 6.67353 	 -24.8379 	 60.996 	 
H 	 9.72787 	 -25.3942 	 62.3222 	 
C 	 7.09558 	 -25.8404 	 63.3735 	 
H 	 6.0141 	 -25.7341 	 63.4428 	 
H 	 7.5123 	 -25.2618 	 64.1788 	 
C 	 7.41838 	 -27.3417 	 63.6062 	 
H 	 6.92778 	 -27.6633 	 64.4427 	 
H 	 8.4771 	 -27.3467 	 63.8768 	 
C 	 7.06184 	 -28.4042 	 62.5796 	 
H 	 6.97328 	 -29.4151 	 63.007 	 
H 	 7.7426 	 -28.4282 	 61.7333 	 
H 	 6.11668 	 -28.2999 	 62.1124 	 
H 	 1.84317 	 -24.2231 	 59.6198 	 
H 	 10.0661 	 -24.3576 	 60.0001 	 
