34

S 	 -4.47116 	 28.4036 	 46.1407 	 
C 	 -3.90615 	 27.5629 	 44.7105 	 
C 	 -4.49756 	 28.0331 	 43.5242 	 
C 	 -5.48977 	 28.9786 	 43.8118 	 
C 	 -5.64508 	 29.343 	 45.1649 	 
H 	 -5.95714 	 29.5026 	 43.0004 	 
C 	 -4.33639 	 27.4781 	 42.1593 	 
H 	 -3.22575 	 27.3544 	 41.9336 	 
H 	 -4.51596 	 28.3425 	 41.4157 	 
C 	 -5.09754 	 26.2546 	 41.6403 	 
H 	 -6.18435 	 26.287 	 41.7021 	 
H 	 -4.85038 	 26.2821 	 40.6253 	 
C 	 -4.47505 	 25.0099 	 42.2898 	 
H 	 -3.37343 	 24.9014 	 42.1218 	 
H 	 -4.67758 	 24.9912 	 43.3679 	 
H 	 -4.96131 	 24.1607 	 41.8319 	 
S 	 -8.23883 	 30.5893 	 45.4085 	 
C 	 -8.29169 	 32.0509 	 46.37 	 
C 	 -7.05567 	 32.4123 	 46.91 	 
C 	 -5.94249 	 31.6145 	 46.4484 	 
C 	 -6.3881 	 30.5212 	 45.7041 	 
H 	 -6.77611 	 33.1989 	 47.5575 	 
C 	 -4.50825 	 31.7482 	 46.9804 	 
H 	 -4.2849 	 30.889 	 47.5587 	 
H 	 -4.53562 	 32.467 	 47.7809 	 
C 	 -3.35022 	 32.1762 	 46.0309 	 
H 	 -3.39691 	 33.2048 	 45.731 	 
H 	 -3.50256 	 31.7154 	 45.0634 	 
C 	 -1.98388 	 31.7259 	 46.5679 	 
H 	 -1.96651 	 30.6045 	 46.5529 	 
H 	 -1.65378 	 32.0475 	 47.5552 	 
H 	 -1.14989 	 31.9993 	 45.9116 	 
H 	 -3.41468 	 26.61 	 44.688 	 
H 	 -9.1233 	 32.6322 	 46.7491 	 
