34

S 	 -40.4715 	 55.5612 	 113.007 	 
C 	 -41.7566 	 55.7218 	 111.906 	 
C 	 -41.3072 	 55.6942 	 110.601 	 
C 	 -39.934 	 55.3435 	 110.477 	 
C 	 -39.3148 	 55.2686 	 111.722 	 
H 	 -39.4377 	 55.1838 	 109.561 	 
C 	 -42.1466 	 55.895 	 109.359 	 
H 	 -43.1255 	 55.7913 	 109.827 	 
H 	 -41.9253 	 55.0202 	 108.692 	 
C 	 -41.9991 	 57.2598 	 108.675 	 
H 	 -41.0809 	 57.8538 	 108.864 	 
H 	 -41.8414 	 56.9318 	 107.62 	 
C 	 -43.1495 	 58.2193 	 108.821 	 
H 	 -42.9371 	 59.0595 	 108.108 	 
H 	 -44.0697 	 57.7925 	 108.426 	 
H 	 -43.2404 	 58.5218 	 109.828 	 
S 	 -36.9681 	 56.3214 	 112.547 	 
C 	 -35.5484 	 55.2514 	 112.565 	 
C 	 -35.7318 	 53.9861 	 111.976 	 
C 	 -37.1015 	 53.8469 	 111.608 	 
C 	 -37.907 	 54.9499 	 111.979 	 
H 	 -34.9014 	 53.309 	 111.945 	 
C 	 -37.5958 	 52.6522 	 110.896 	 
H 	 -36.7337 	 52.3548 	 110.345 	 
H 	 -38.457 	 52.9151 	 110.229 	 
C 	 -38.0627 	 51.503 	 111.784 	 
H 	 -38.9444 	 51.7652 	 112.211 	 
H 	 -37.2552 	 51.3527 	 112.456 	 
C 	 -38.0852 	 50.1609 	 110.949 	 
H 	 -38.9981 	 50.1435 	 110.4 	 
H 	 -38.1833 	 49.3371 	 111.616 	 
H 	 -37.2974 	 49.9558 	 110.297 	 
H 	 -42.7326 	 56.1584 	 112.024 	 
H 	 -34.6098 	 55.655 	 112.858 	 
