34

S 	 -44.7854 	 28.0955 	 82.146 	 
C 	 -44.9014 	 26.4221 	 82.6865 	 
C 	 -46.0389 	 25.8397 	 82.1893 	 
C 	 -46.6902 	 26.6837 	 81.1975 	 
C 	 -46.0757 	 27.8978 	 80.9661 	 
H 	 -47.5551 	 26.4919 	 80.546 	 
C 	 -46.453 	 24.4233 	 82.5628 	 
H 	 -47.4965 	 24.2098 	 82.3043 	 
H 	 -46.268 	 24.3515 	 83.6342 	 
C 	 -45.8105 	 23.1715 	 81.9553 	 
H 	 -46.197 	 22.2692 	 82.4804 	 
H 	 -45.9319 	 23.1641 	 80.8599 	 
C 	 -44.3146 	 23.0177 	 82.1573 	 
H 	 -43.9507 	 23.1131 	 83.1692 	 
H 	 -43.9597 	 22.036 	 81.8444 	 
H 	 -43.766 	 23.7404 	 81.5155 	 
S 	 -46.8941 	 30.4409 	 80.8437 	 
C 	 -47.3663 	 31.1905 	 79.3829 	 
C 	 -47.1224 	 30.3193 	 78.3457 	 
C 	 -46.653 	 29.0634 	 78.7274 	 
C 	 -46.5833 	 28.9445 	 80.0742 	 
H 	 -47.2575 	 30.7687 	 77.3647 	 
C 	 -46.2108 	 27.9956 	 77.6824 	 
H 	 -45.9188 	 27.1352 	 78.1986 	 
H 	 -45.3008 	 28.3006 	 77.0857 	 
C 	 -47.3716 	 27.7189 	 76.7204 	 
H 	 -47.6065 	 28.6246 	 76.1662 	 
H 	 -48.3557 	 27.5809 	 77.2006 	 
C 	 -47.1568 	 26.6611 	 75.7598 	 
H 	 -48.0232 	 26.5916 	 75.1087 	 
H 	 -47.2344 	 25.7144 	 76.3534 	 
H 	 -46.2144 	 26.8587 	 75.2232 	 
H 	 -44.345 	 26.0533 	 83.5137 	 
H 	 -47.7161 	 32.2343 	 79.347 	 
