34

S 	 -9.17236 	 7.6732 	 85.314 	 
C 	 -9.62831 	 6.94676 	 86.8264 	 
C 	 -8.67798 	 7.15909 	 87.7788 	 
C 	 -7.61638 	 8.04203 	 87.3971 	 
C 	 -7.70329 	 8.40503 	 86.0307 	 
H 	 -6.8249 	 8.42695 	 88.0181 	 
C 	 -8.79788 	 6.62041 	 89.2436 	 
H 	 -9.42624 	 5.76946 	 89.3804 	 
H 	 -9.28418 	 7.3574 	 89.8347 	 
C 	 -7.44279 	 6.25658 	 89.8275 	 
H 	 -7.05197 	 5.62113 	 89.0105 	 
H 	 -6.83659 	 7.20482 	 89.9045 	 
C 	 -7.4677 	 5.5531 	 91.2406 	 
H 	 -8.15664 	 4.69522 	 91.3885 	 
H 	 -6.4715 	 5.24142 	 91.3745 	 
H 	 -7.76253 	 6.23209 	 92.0161 	 
S 	 -6.48836 	 10.9331 	 86.0898 	 
C 	 -5.53702 	 11.3403 	 84.6837 	 
C 	 -5.23482 	 10.2327 	 83.8659 	 
C 	 -5.94797 	 9.06112 	 84.2937 	 
C 	 -6.78975 	 9.29161 	 85.358 	 
H 	 -4.61006 	 10.2947 	 83.0139 	 
C 	 -5.84357 	 7.76912 	 83.4632 	 
H 	 -5.80344 	 7.97142 	 82.4061 	 
H 	 -6.84527 	 7.2585 	 83.5798 	 
C 	 -4.56344 	 6.9119 	 83.9414 	 
H 	 -3.69412 	 7.40399 	 83.6455 	 
H 	 -4.51285 	 5.81331 	 83.6155 	 
C 	 -4.46873 	 6.65695 	 85.4046 	 
H 	 -3.53014 	 6.14505 	 85.5589 	 
H 	 -5.3202 	 5.94936 	 85.598 	 
H 	 -4.5179 	 7.57937 	 86.0036 	 
H 	 -10.4668 	 6.27758 	 86.8638 	 
H 	 -5.09528 	 12.282 	 84.385 	 
