34

S 	 -119.416 	 48.6118 	 134.786 	 
C 	 -118.701 	 49.4887 	 136.05 	 
C 	 -117.375 	 49.7247 	 136 	 
C 	 -116.882 	 48.9444 	 134.884 	 
C 	 -117.814 	 48.2991 	 134.155 	 
H 	 -115.862 	 48.6876 	 134.623 	 
C 	 -116.515 	 50.5528 	 136.933 	 
H 	 -115.644 	 49.9729 	 137.223 	 
H 	 -117.074 	 50.7034 	 137.891 	 
C 	 -116.158 	 51.9508 	 136.396 	 
H 	 -115.345 	 52.4584 	 136.888 	 
H 	 -115.666 	 51.8583 	 135.443 	 
C 	 -117.407 	 52.8298 	 136.304 	 
H 	 -117.258 	 53.8135 	 135.843 	 
H 	 -118.254 	 52.3498 	 135.773 	 
H 	 -117.665 	 53.1225 	 137.298 	 
S 	 -117.971 	 45.724 	 133.317 	 
C 	 -117.501 	 45.359 	 131.728 	 
C 	 -116.87 	 46.4166 	 131.113 	 
C 	 -116.84 	 47.6165 	 131.876 	 
C 	 -117.497 	 47.3693 	 133.084 	 
H 	 -116.621 	 46.1645 	 130.069 	 
C 	 -116.446 	 48.9379 	 131.417 	 
H 	 -115.426 	 49.0979 	 131.732 	 
H 	 -116.975 	 49.6474 	 132.057 	 
C 	 -116.825 	 49.1926 	 129.961 	 
H 	 -116.366 	 48.5125 	 129.256 	 
H 	 -116.377 	 50.1657 	 129.71 	 
C 	 -118.282 	 49.4863 	 129.755 	 
H 	 -118.626 	 50.2922 	 130.386 	 
H 	 -118.915 	 48.7719 	 130.172 	 
H 	 -118.533 	 49.7949 	 128.756 	 
H 	 -119.221 	 50.0335 	 136.885 	 
H 	 -117.679 	 44.4114 	 131.216 	 
