34

S 	 29.127 	 16.1461 	 70.5468 	 
C 	 28.9027 	 14.4072 	 70.8549 	 
C 	 30.0389 	 13.6934 	 70.4984 	 
C 	 31.023 	 14.56 	 69.9157 	 
C 	 30.6977 	 15.9165 	 69.9169 	 
H 	 31.9978 	 14.2341 	 69.6697 	 
C 	 30.4368 	 12.2625 	 70.819 	 
H 	 31.4288 	 12.0541 	 70.3314 	 
H 	 29.7571 	 11.5408 	 70.366 	 
C 	 30.4378 	 11.9364 	 72.3533 	 
H 	 31.219 	 12.5203 	 72.8467 	 
H 	 29.5342 	 12.1967 	 72.8533 	 
C 	 30.7611 	 10.4781 	 72.5726 	 
H 	 31.3939 	 9.9497 	 71.8491 	 
H 	 31.3854 	 10.4727 	 73.4602 	 
H 	 29.9166 	 9.81819 	 72.7033 	 
S 	 30.959 	 18.2298 	 68.4496 	 
C 	 32.2992 	 19.3061 	 68.4913 	 
C 	 33.2068 	 18.7771 	 69.3718 	 
C 	 32.8521 	 17.4494 	 69.9449 	 
C 	 31.5959 	 17.0246 	 69.5554 	 
H 	 34.1314 	 19.338 	 69.5588 	 
C 	 33.7565 	 16.8572 	 70.9635 	 
H 	 33.2269 	 16.0244 	 71.4904 	 
H 	 33.8485 	 17.538 	 71.8201 	 
C 	 35.0873 	 16.3533 	 70.4613 	 
H 	 35.7103 	 17.1858 	 70.1162 	 
H 	 34.9778 	 15.7197 	 69.616 	 
C 	 35.872 	 15.6504 	 71.5466 	 
H 	 35.3459 	 14.6862 	 71.9206 	 
H 	 35.9257 	 16.2896 	 72.4136 	 
H 	 36.9289 	 15.3826 	 71.377 	 
H 	 28.1135 	 13.8748 	 71.3595 	 
H 	 32.3722 	 20.2396 	 68.051 	 
