34

S 	 -101.576 	 57.7581 	 117.838 	 
C 	 -100.186 	 57.1978 	 116.902 	 
C 	 -100.437 	 55.9833 	 116.287 	 
C 	 -101.684 	 55.4424 	 116.649 	 
C 	 -102.387 	 56.1793 	 117.585 	 
H 	 -102.098 	 54.4963 	 116.344 	 
C 	 -99.4382 	 55.2962 	 115.269 	 
H 	 -98.9823 	 56.1236 	 114.727 	 
H 	 -100.055 	 54.7971 	 114.531 	 
C 	 -98.443 	 54.2064 	 115.733 	 
H 	 -98.0661 	 53.9873 	 114.751 	 
H 	 -97.6841 	 54.7312 	 116.24 	 
C 	 -98.9457 	 52.9208 	 116.554 	 
H 	 -99.3976 	 53.2236 	 117.487 	 
H 	 -99.8147 	 52.554 	 116.041 	 
H 	 -98.2302 	 52.1193 	 116.74 	 
S 	 -104.987 	 57.0945 	 117.576 	 
C 	 -106.156 	 56.2605 	 118.537 	 
C 	 -105.663 	 55.0341 	 118.998 	 
C 	 -104.252 	 54.8003 	 118.743 	 
C 	 -103.737 	 55.9308 	 118.065 	 
H 	 -106.329 	 54.2703 	 119.5 	 
C 	 -103.5 	 53.5783 	 119.234 	 
H 	 -103.075 	 53.7851 	 120.244 	 
H 	 -102.724 	 53.403 	 118.547 	 
C 	 -104.462 	 52.3488 	 119.213 	 
H 	 -105.259 	 52.442 	 119.915 	 
H 	 -103.832 	 51.4867 	 119.453 	 
C 	 -104.952 	 51.949 	 117.778 	 
H 	 -105.449 	 52.7684 	 117.323 	 
H 	 -105.631 	 51.1002 	 117.82 	 
H 	 -104.053 	 51.7504 	 117.162 	 
H 	 -99.2325 	 57.754 	 116.684 	 
H 	 -107.244 	 56.4265 	 118.545 	 
