34

S 	 -61.4146 	 63.0286 	 123.012 	 
C 	 -62.0879 	 64.2846 	 123.997 	 
C 	 -63.1321 	 63.8508 	 124.746 	 
C 	 -63.4262 	 62.4955 	 124.438 	 
C 	 -62.5497 	 61.9229 	 123.57 	 
H 	 -64.2015 	 61.8903 	 124.892 	 
C 	 -63.7958 	 64.6367 	 125.881 	 
H 	 -64.4732 	 65.3209 	 125.293 	 
H 	 -63.1362 	 65.2235 	 126.478 	 
C 	 -64.5558 	 63.8653 	 127.039 	 
H 	 -65.4941 	 63.5086 	 126.571 	 
H 	 -63.9822 	 63.0055 	 127.308 	 
C 	 -64.7749 	 64.8399 	 128.222 	 
H 	 -63.9478 	 65.4293 	 128.517 	 
H 	 -65.5777 	 65.6128 	 127.912 	 
H 	 -65.1444 	 64.2874 	 129.081 	 
S 	 -61.9463 	 60.1677 	 121.468 	 
C 	 -62.456 	 58.4644 	 121.592 	 
C 	 -63.0168 	 58.3021 	 122.825 	 
C 	 -62.9522 	 59.4212 	 123.718 	 
C 	 -62.5195 	 60.5213 	 123.122 	 
H 	 -63.4472 	 57.296 	 123.046 	 
C 	 -63.1598 	 59.2477 	 125.246 	 
H 	 -62.6534 	 60.0879 	 125.733 	 
H 	 -62.7041 	 58.3297 	 125.536 	 
C 	 -64.6382 	 59.1834 	 125.731 	 
H 	 -65.0898 	 58.1978 	 125.347 	 
H 	 -65.1774 	 60.0089 	 125.237 	 
C 	 -64.6245 	 59.3834 	 127.293 	 
H 	 -64.134 	 58.5755 	 127.862 	 
H 	 -65.6769 	 59.5381 	 127.628 	 
H 	 -64.016 	 60.2659 	 127.57 	 
H 	 -61.6378 	 65.257 	 124.122 	 
H 	 -62.2866 	 57.6892 	 120.929 	 
