34

S 	 7.72385 	 -13.5794 	 55.9562 	 
C 	 6.10385 	 -13.9327 	 56.5628 	 
C 	 5.73975 	 -15.1855 	 56.2271 	 
C 	 6.75604 	 -15.9334 	 55.5313 	 
C 	 7.9608 	 -15.2383 	 55.48 	 
H 	 6.78251 	 -16.9197 	 55.0714 	 
C 	 4.34975 	 -15.7427 	 56.3988 	 
H 	 3.72599 	 -15.4406 	 55.5295 	 
H 	 3.88847 	 -15.3255 	 57.2724 	 
C 	 4.32852 	 -17.2297 	 56.4929 	 
H 	 3.30388 	 -17.5945 	 56.608 	 
H 	 4.72408 	 -17.7905 	 55.6216 	 
C 	 4.8303 	 -17.9208 	 57.7808 	 
H 	 5.90376 	 -17.9293 	 57.7615 	 
H 	 4.35873 	 -17.4206 	 58.6589 	 
H 	 4.49686 	 -19.0127 	 57.8047 	 
S 	 10.0377 	 -14.5627 	 53.9324 	 
C 	 11.2314 	 -15.7526 	 53.5846 	 
C 	 10.9192 	 -17.0309 	 54.0866 	 
C 	 9.70102 	 -17.0551 	 54.7887 	 
C 	 9.17922 	 -15.7707 	 54.8138 	 
H 	 11.593 	 -17.9193 	 53.9007 	 
C 	 9.09136 	 -18.3304 	 55.4607 	 
H 	 8.39438 	 -18.1456 	 56.292 	 
H 	 9.90655 	 -18.9313 	 55.9628 	 
C 	 8.44863 	 -19.1438 	 54.3339 	 
H 	 9.08262 	 -19.5012 	 53.4934 	 
H 	 7.73451 	 -18.481 	 53.8365 	 
C 	 7.66937 	 -20.4206 	 54.9352 	 
H 	 6.83949 	 -19.9257 	 55.5079 	 
H 	 8.38273 	 -20.9357 	 55.6059 	 
H 	 7.36717 	 -21.2723 	 54.2481 	 
H 	 5.36387 	 -13.2741 	 57.0675 	 
H 	 11.9128 	 -15.675 	 52.7353 	 
