34

S 	 -0.696249 	 -19.8618 	 91.052 	 
C 	 -1.85123 	 -19.4033 	 89.7303 	 
C 	 -1.16261 	 -19.0462 	 88.5494 	 
C 	 0.258448 	 -19.2513 	 88.6843 	 
C 	 0.635021 	 -19.5919 	 89.9837 	 
H 	 0.978671 	 -19.1188 	 87.8776 	 
C 	 -1.89291 	 -18.681 	 87.2647 	 
H 	 -1.37158 	 -17.7798 	 86.8265 	 
H 	 -2.90468 	 -18.3994 	 87.5157 	 
C 	 -1.95267 	 -19.661 	 86.0462 	 
H 	 -2.30945 	 -19.2335 	 85.1253 	 
H 	 -0.896896 	 -19.9142 	 85.9751 	 
C 	 -2.72288 	 -21.0304 	 86.3698 	 
H 	 -2.95592 	 -21.4875 	 85.4505 	 
H 	 -2.04222 	 -21.7017 	 86.8846 	 
H 	 -3.58603 	 -20.9014 	 86.9749 	 
S 	 2.59805 	 -19.328 	 91.9363 	 
C 	 4.21042 	 -19.8799 	 91.5309 	 
C 	 4.29109 	 -20.427 	 90.2471 	 
C 	 3.0365 	 -20.4106 	 89.5394 	 
C 	 2.03279 	 -19.7632 	 90.2633 	 
H 	 5.21692 	 -20.7842 	 89.8771 	 
C 	 2.72641 	 -21.1356 	 88.1711 	 
H 	 1.68184 	 -21.1199 	 87.8426 	 
H 	 3.08307 	 -22.1527 	 88.3622 	 
C 	 3.6439 	 -20.7209 	 87.0082 	 
H 	 4.62463 	 -20.9862 	 87.4212 	 
H 	 3.58376 	 -19.6638 	 86.9099 	 
C 	 3.34134 	 -21.4686 	 85.7095 	 
H 	 2.30607 	 -21.494 	 85.4059 	 
H 	 3.57403 	 -22.4721 	 85.843 	 
H 	 3.99842 	 -21.2279 	 84.853 	 
H 	 -2.934 	 -19.3108 	 89.8041 	 
H 	 5.10223 	 -19.6112 	 92.0851 	 
