34

S 	 -12.9479 	 48.44 	 35.2323 	 
C 	 -11.7093 	 47.4324 	 35.9195 	 
C 	 -10.4416 	 47.8377 	 35.5112 	 
C 	 -10.4926 	 49.0625 	 34.762 	 
C 	 -11.7699 	 49.4976 	 34.5388 	 
H 	 -9.55928 	 49.5248 	 34.2664 	 
C 	 -9.10372 	 47.2028 	 35.7302 	 
H 	 -8.81488 	 46.9098 	 34.7323 	 
H 	 -9.19924 	 46.3991 	 36.4014 	 
C 	 -8.02702 	 48.0788 	 36.3987 	 
H 	 -7.84724 	 49.005 	 35.8339 	 
H 	 -8.42842 	 48.3182 	 37.4386 	 
C 	 -6.6855 	 47.3818 	 36.2775 	 
H 	 -5.87422 	 48.1337 	 36.554 	 
H 	 -6.6038 	 46.616 	 37.0326 	 
H 	 -6.3899 	 47.1073 	 35.2194 	 
S 	 -12.3386 	 50.5988 	 32.181 	 
C 	 -12.4211 	 52.3652 	 31.9467 	 
C 	 -12.427 	 52.9972 	 33.1237 	 
C 	 -12.2827 	 52.1019 	 34.22 	 
C 	 -12.1326 	 50.7611 	 33.8944 	 
H 	 -12.4992 	 54.0537 	 33.0296 	 
C 	 -12.0922 	 52.5796 	 35.6309 	 
H 	 -11.878 	 53.709 	 35.5959 	 
H 	 -11.2792 	 52.1392 	 36.0659 	 
C 	 -13.3561 	 52.3528 	 36.5119 	 
H 	 -13.2065 	 52.4793 	 37.5853 	 
H 	 -13.5932 	 51.2794 	 36.3706 	 
C 	 -14.4061 	 53.4209 	 36.0939 	 
H 	 -14.1444 	 54.3841 	 36.5188 	 
H 	 -15.4045 	 53.1939 	 36.4301 	 
H 	 -14.5745 	 53.537 	 35.0219 	 
H 	 -11.938 	 46.5602 	 36.4467 	 
H 	 -12.4828 	 52.8731 	 31.1049 	 
