34

S 	 -9.84261 	 -8.0128 	 75.6139 	 
C 	 -9.5818 	 -9.73771 	 75.742 	 
C 	 -10.782 	 -10.3638 	 76.0286 	 
C 	 -11.8801 	 -9.45652 	 76.2076 	 
C 	 -11.4955 	 -8.20425 	 75.9446 	 
H 	 -12.9199 	 -9.7064 	 76.5135 	 
C 	 -11.0164 	 -11.8619 	 76.2644 	 
H 	 -10.4382 	 -12.4869 	 75.4384 	 
H 	 -12.0774 	 -12.1418 	 76.1788 	 
C 	 -10.4964 	 -12.3384 	 77.622 	 
H 	 -9.77623 	 -11.6388 	 78.0078 	 
H 	 -11.2481 	 -12.3335 	 78.3583 	 
C 	 -9.71682 	 -13.7213 	 77.5446 	 
H 	 -8.90316 	 -13.7374 	 76.7477 	 
H 	 -9.19278 	 -13.885 	 78.4928 	 
H 	 -10.3507 	 -14.6582 	 77.4688 	 
S 	 -12.9518 	 -6.67773 	 77.6226 	 
C 	 -13.8048 	 -5.22547 	 77.0788 	 
C 	 -13.6313 	 -5.14346 	 75.6743 	 
C 	 -13.0467 	 -6.33966 	 75.1465 	 
C 	 -12.4198 	 -7.10054 	 76.0642 	 
H 	 -13.9281 	 -4.25303 	 75.0667 	 
C 	 -12.8309 	 -6.49561 	 73.6706 	 
H 	 -11.8118 	 -6.88164 	 73.425 	 
H 	 -12.8061 	 -5.58563 	 73.1644 	 
C 	 -13.8519 	 -7.50342 	 73.0862 	 
H 	 -14.8964 	 -7.16139 	 73.1764 	 
H 	 -13.6352 	 -8.41323 	 73.6547 	 
C 	 -13.6767 	 -7.79711 	 71.5732 	 
H 	 -12.8063 	 -8.5097 	 71.3049 	 
H 	 -13.5274 	 -6.9754 	 70.9575 	 
H 	 -14.5189 	 -8.32974 	 71.2982 	 
H 	 -8.53061 	 -10.1014 	 75.9423 	 
H 	 -14.3306 	 -4.52679 	 77.7473 	 
