34

S 	 -66.2589 	 44.3995 	 121.966 	 
C 	 -66.2306 	 43.4047 	 123.437 	 
C 	 -66.71 	 44.1096 	 124.522 	 
C 	 -67.2134 	 45.3895 	 124.197 	 
C 	 -66.9719 	 45.7443 	 122.895 	 
H 	 -67.6887 	 45.9864 	 124.914 	 
C 	 -66.5119 	 43.6713 	 125.989 	 
H 	 -66.7013 	 42.5599 	 126.025 	 
H 	 -67.2351 	 44.1812 	 126.61 	 
C 	 -65.0908 	 43.8611 	 126.505 	 
H 	 -64.3685 	 43.3251 	 125.858 	 
H 	 -64.7139 	 44.9395 	 126.473 	 
C 	 -64.9456 	 43.2161 	 127.906 	 
H 	 -65.165 	 44.0084 	 128.608 	 
H 	 -65.5681 	 42.3429 	 127.994 	 
H 	 -63.9044 	 42.9116 	 128.21 	 
S 	 -68.1317 	 47.0284 	 120.707 	 
C 	 -67.9576 	 48.7762 	 120.587 	 
C 	 -67.0093 	 49.2076 	 121.488 	 
C 	 -66.616 	 48.2434 	 122.409 	 
C 	 -67.2599 	 47.0208 	 122.245 	 
H 	 -66.8641 	 50.3203 	 121.512 	 
C 	 -65.6382 	 48.6485 	 123.502 	 
H 	 -64.8803 	 49.3281 	 123.089 	 
H 	 -65.1437 	 47.748 	 123.879 	 
C 	 -66.2811 	 49.3288 	 124.702 	 
H 	 -66.9383 	 48.6327 	 125.084 	 
H 	 -66.9405 	 50.1719 	 124.461 	 
C 	 -65.2662 	 49.744 	 125.78 	 
H 	 -64.6836 	 48.9643 	 126.196 	 
H 	 -65.7002 	 50.198 	 126.663 	 
H 	 -64.6295 	 50.534 	 125.424 	 
H 	 -65.7616 	 42.378 	 123.555 	 
H 	 -68.3087 	 49.3756 	 119.725 	 
