34

S 	 -107.711 	 58.7493 	 118.469 	 
C 	 -107.127 	 59.2842 	 116.906 	 
C 	 -106.585 	 58.2462 	 116.142 	 
C 	 -106.662 	 57.0132 	 116.899 	 
C 	 -107.173 	 57.1123 	 118.193 	 
H 	 -106.332 	 55.9858 	 116.624 	 
C 	 -106.092 	 58.2836 	 114.716 	 
H 	 -105.024 	 58.2077 	 114.698 	 
H 	 -106.293 	 59.3257 	 114.357 	 
C 	 -106.822 	 57.3148 	 113.782 	 
H 	 -106.268 	 57.1183 	 112.896 	 
H 	 -106.959 	 56.2643 	 114.18 	 
C 	 -108.215 	 57.8953 	 113.399 	 
H 	 -109.017 	 57.2171 	 113.135 	 
H 	 -108.5 	 58.4547 	 114.31 	 
H 	 -108.209 	 58.6081 	 112.605 	 
S 	 -106.61 	 56.0314 	 120.781 	 
C 	 -107.527 	 54.6616 	 121.317 	 
C 	 -108.384 	 54.169 	 120.344 	 
C 	 -108.277 	 54.8715 	 119.073 	 
C 	 -107.396 	 56.0125 	 119.197 	 
H 	 -108.981 	 53.2836 	 120.521 	 
C 	 -109.137 	 54.5803 	 117.889 	 
H 	 -108.92 	 55.2695 	 117.067 	 
H 	 -110.19 	 54.8878 	 118.176 	 
C 	 -109.048 	 53.0775 	 117.465 	 
H 	 -109.417 	 52.4314 	 118.288 	 
H 	 -108.081 	 52.7545 	 117.453 	 
C 	 -109.637 	 52.8841 	 116.05 	 
H 	 -109.592 	 51.8686 	 115.654 	 
H 	 -109.129 	 53.3665 	 115.288 	 
H 	 -110.684 	 53.1874 	 116.007 	 
H 	 -107.423 	 60.2076 	 116.425 	 
H 	 -107.385 	 54.1176 	 122.255 	 
