34

S 	 -34.9987 	 57.8173 	 113.004 	 
C 	 -33.3066 	 58.1115 	 113.174 	 
C 	 -32.606 	 56.9054 	 113.202 	 
C 	 -33.4941 	 55.8629 	 113.297 	 
C 	 -34.7786 	 56.1009 	 113.068 	 
H 	 -33.3027 	 54.7945 	 113.56 	 
C 	 -31.1319 	 56.7511 	 113.447 	 
H 	 -30.8537 	 55.7439 	 113.819 	 
H 	 -30.837 	 57.3423 	 114.329 	 
C 	 -30.3128 	 57.2367 	 112.158 	 
H 	 -30.5045 	 58.3296 	 112.005 	 
H 	 -29.2194 	 57.2539 	 112.43 	 
C 	 -30.5767 	 56.4831 	 110.917 	 
H 	 -31.5589 	 56.7929 	 110.541 	 
H 	 -29.8461 	 56.7934 	 110.172 	 
H 	 -30.5113 	 55.3724 	 110.99 	 
S 	 -37.2386 	 55.0328 	 113.972 	 
C 	 -37.8227 	 53.5396 	 113.308 	 
C 	 -36.9141 	 53.0748 	 112.384 	 
C 	 -35.8194 	 53.9491 	 112.12 	 
C 	 -35.8554 	 55.1134 	 112.85 	 
H 	 -37.1067 	 52.0959 	 111.92 	 
C 	 -34.728 	 53.6129 	 111.079 	 
H 	 -34.5424 	 52.5599 	 111.027 	 
H 	 -33.8078 	 54.1367 	 111.412 	 
C 	 -34.9322 	 54.2169 	 109.663 	 
H 	 -34.3293 	 53.6941 	 108.934 	 
H 	 -34.4322 	 55.1734 	 109.678 	 
C 	 -36.3898 	 54.081 	 109.14 	 
H 	 -36.5292 	 54.6685 	 108.134 	 
H 	 -37.0875 	 54.5937 	 109.835 	 
H 	 -36.6647 	 53.0026 	 108.887 	 
H 	 -32.8898 	 59.0635 	 113.095 	 
H 	 -38.6147 	 52.8742 	 113.651 	 
