34

S 	 52.6934 	 20.8841 	 47.5937 	 
C 	 51.8051 	 21.4325 	 46.1877 	 
C 	 52.4424 	 20.9817 	 44.9894 	 
C 	 53.6243 	 20.1701 	 45.2688 	 
C 	 53.9267 	 20.0873 	 46.6111 	 
H 	 54.2509 	 19.7893 	 44.5802 	 
C 	 52.1147 	 21.3187 	 43.5954 	 
H 	 52.9849 	 21.7296 	 43.0983 	 
H 	 51.4388 	 22.192 	 43.5927 	 
C 	 51.3594 	 20.2088 	 42.7778 	 
H 	 51.4835 	 20.2859 	 41.6966 	 
H 	 51.7572 	 19.2645 	 43.1207 	 
C 	 49.8296 	 20.0456 	 43.0139 	 
H 	 49.3948 	 19.1574 	 42.549 	 
H 	 49.7443 	 20.0079 	 44.0506 	 
H 	 49.2259 	 20.9073 	 42.6148 	 
S 	 56.5306 	 20.0726 	 47.599 	 
C 	 57.1304 	 18.5657 	 48.2159 	 
C 	 56.2025 	 17.5569 	 48.1988 	 
C 	 54.9694 	 17.9901 	 47.6622 	 
C 	 54.9545 	 19.2514 	 47.2231 	 
H 	 56.4051 	 16.5278 	 48.4735 	 
C 	 53.768 	 16.9581 	 47.4549 	 
H 	 53.0309 	 17.4108 	 46.7484 	 
H 	 53.3575 	 16.8405 	 48.4255 	 
C 	 54.1022 	 15.682 	 46.7127 	 
H 	 54.8951 	 15.2795 	 47.3138 	 
H 	 54.5079 	 15.7747 	 45.7185 	 
C 	 52.937 	 14.6598 	 46.7143 	 
H 	 53.1704 	 13.8007 	 46.0338 	 
H 	 52.0621 	 15.119 	 46.2386 	 
H 	 52.8628 	 14.2359 	 47.6417 	 
H 	 50.8636 	 21.9584 	 46.3602 	 
H 	 58.1829 	 18.4232 	 48.4476 	 
