34

S 	 -42.3499 	 56.1336 	 108.052 	 
C 	 -43.7922 	 57.0295 	 108.169 	 
C 	 -43.7155 	 58.2764 	 107.579 	 
C 	 -42.4022 	 58.4386 	 107.017 	 
C 	 -41.5851 	 57.3142 	 107.151 	 
H 	 -42.0811 	 59.3216 	 106.528 	 
C 	 -44.8035 	 59.2708 	 107.415 	 
H 	 -45.605 	 58.8252 	 106.859 	 
H 	 -44.3377 	 60.1844 	 106.994 	 
C 	 -45.3853 	 59.7872 	 108.813 	 
H 	 -45.8617 	 58.9658 	 109.263 	 
H 	 -44.5374 	 60.0076 	 109.497 	 
C 	 -46.357 	 60.9888 	 108.72 	 
H 	 -47.2744 	 60.7793 	 108.251 	 
H 	 -46.6707 	 61.4046 	 109.734 	 
H 	 -45.8398 	 61.7901 	 108.112 	 
S 	 -38.948 	 58.0524 	 107.259 	 
C 	 -37.824 	 56.9759 	 106.566 	 
C 	 -38.392 	 56.1284 	 105.667 	 
C 	 -39.8113 	 56.1848 	 105.748 	 
C 	 -40.2301 	 57.0796 	 106.661 	 
H 	 -37.7572 	 55.4971 	 105.041 	 
C 	 -40.7408 	 55.3775 	 104.891 	 
H 	 -41.5242 	 55.041 	 105.575 	 
H 	 -40.333 	 54.4678 	 104.378 	 
C 	 -41.4552 	 56.1729 	 103.677 	 
H 	 -40.7298 	 56.5038 	 102.995 	 
H 	 -41.9196 	 57.0206 	 104.157 	 
C 	 -42.4355 	 55.3734 	 102.926 	 
H 	 -43.3038 	 55.1169 	 103.624 	 
H 	 -41.9777 	 54.4388 	 102.564 	 
H 	 -42.7828 	 55.9783 	 102.115 	 
H 	 -44.6128 	 56.6738 	 108.747 	 
H 	 -36.7768 	 57.1229 	 106.612 	 
