34

S 	 -38.4511 	 16.09 	 78.563 	 
C 	 -36.9661 	 15.9137 	 77.6328 	 
C 	 -37.0867 	 14.9301 	 76.6477 	 
C 	 -38.4276 	 14.4619 	 76.5426 	 
C 	 -39.2612 	 14.9822 	 77.5266 	 
H 	 -38.7913 	 13.6667 	 75.9684 	 
C 	 -35.958 	 14.5474 	 75.6451 	 
H 	 -36.2877 	 13.645 	 75.2692 	 
H 	 -35.0549 	 14.2632 	 76.2121 	 
C 	 -35.6304 	 15.5542 	 74.558 	 
H 	 -35.3579 	 16.5009 	 74.9779 	 
H 	 -34.8262 	 15.2204 	 73.9281 	 
C 	 -36.8192 	 16.0059 	 73.5856 	 
H 	 -37.4689 	 16.4778 	 74.2062 	 
H 	 -36.4679 	 16.7477 	 72.842 	 
H 	 -37.2966 	 15.1435 	 73.0726 	 
S 	 -41.7333 	 16.1994 	 77.3949 	 
C 	 -43.1617 	 15.1788 	 77.5986 	 
C 	 -42.8387 	 13.8555 	 77.7715 	 
C 	 -41.4282 	 13.5925 	 77.6998 	 
C 	 -40.6922 	 14.765 	 77.5968 	 
H 	 -43.5553 	 13.0879 	 77.8524 	 
C 	 -40.9117 	 12.1549 	 77.9402 	 
H 	 -40.4233 	 11.8845 	 77.048 	 
H 	 -41.7794 	 11.5513 	 78.1302 	 
C 	 -39.9084 	 11.9701 	 79.1223 	 
H 	 -39.0047 	 12.5939 	 78.868 	 
H 	 -39.6718 	 10.8927 	 79.1776 	 
C 	 -40.5484 	 12.3799 	 80.4573 	 
H 	 -40.6026 	 13.4184 	 80.6291 	 
H 	 -40.041 	 12.0088 	 81.3449 	 
H 	 -41.6144 	 11.9404 	 80.6236 	 
H 	 -36.0598 	 16.4307 	 77.9344 	 
H 	 -44.2114 	 15.4711 	 77.7771 	 
