34

S 	 -54.8176 	 39.0705 	 86.3585 	 
C 	 -56.2536 	 40.046 	 86.0838 	 
C 	 -56.0611 	 41.4072 	 86.3354 	 
C 	 -54.6961 	 41.6735 	 86.593 	 
C 	 -53.8735 	 40.5581 	 86.6992 	 
H 	 -54.3062 	 42.5996 	 86.9034 	 
C 	 -57.0391 	 42.5039 	 86.2095 	 
H 	 -56.5061 	 43.3388 	 86.7531 	 
H 	 -57.8941 	 42.0805 	 86.7595 	 
C 	 -57.4117 	 42.9534 	 84.7535 	 
H 	 -57.9762 	 42.185 	 84.148 	 
H 	 -58.0787 	 43.8311 	 84.9114 	 
C 	 -56.1732 	 43.4168 	 83.979 	 
H 	 -55.4364 	 42.6374 	 83.7547 	 
H 	 -56.5298 	 43.8307 	 83.0289 	 
H 	 -55.6708 	 44.2301 	 84.5144 	 
S 	 -51.5844 	 42.0315 	 86.8069 	 
C 	 -50.1233 	 41.452 	 87.5706 	 
C 	 -50.2198 	 40.1881 	 87.9506 	 
C 	 -51.5581 	 39.6537 	 87.6377 	 
C 	 -52.4522 	 40.5643 	 87.0876 	 
H 	 -49.4836 	 39.7297 	 88.5798 	 
C 	 -51.9162 	 38.2428 	 88.1707 	 
H 	 -51.0047 	 37.6259 	 88.3963 	 
H 	 -52.5793 	 37.7364 	 87.4863 	 
C 	 -52.8052 	 38.2955 	 89.4573 	 
H 	 -53.5381 	 39.1106 	 89.4189 	 
H 	 -52.195 	 38.6653 	 90.2122 	 
C 	 -53.4694 	 36.9374 	 89.8319 	 
H 	 -54.2152 	 36.8024 	 89.1259 	 
H 	 -53.8224 	 36.9353 	 90.8326 	 
H 	 -52.9083 	 36.0392 	 89.774 	 
H 	 -57.1902 	 39.6507 	 86.044 	 
H 	 -49.1747 	 42.0477 	 87.7565 	 
