34

S 	 -39.1917 	 2.73962 	 100.106 	 
C 	 -37.4859 	 3.06201 	 100.183 	 
C 	 -36.9295 	 3.02908 	 98.8992 	 
C 	 -37.875 	 2.7257 	 97.9178 	 
C 	 -39.1365 	 2.54158 	 98.3655 	 
H 	 -37.7178 	 2.62332 	 96.8443 	 
C 	 -35.473 	 3.42913 	 98.6922 	 
H 	 -35.0258 	 2.70871 	 98.035 	 
H 	 -34.9916 	 3.33465 	 99.7307 	 
C 	 -35.1004 	 4.7596 	 98.056 	 
H 	 -35.4475 	 5.57973 	 98.7544 	 
H 	 -34.0052 	 4.70587 	 98.0152 	 
C 	 -35.6027 	 4.77435 	 96.5657 	 
H 	 -36.6624 	 4.98179 	 96.69 	 
H 	 -35.3139 	 5.67755 	 95.9844 	 
H 	 -35.4447 	 3.81605 	 96.0219 	 
S 	 -41.7412 	 2.79261 	 97.6253 	 
C 	 -42.4651 	 1.53449 	 96.7015 	 
C 	 -41.6203 	 0.521823 	 96.3033 	 
C 	 -40.3033 	 0.816329 	 96.8151 	 
C 	 -40.2605 	 1.9918 	 97.6221 	 
H 	 -42.0389 	 -0.319154 	 95.7277 	 
C 	 -39.1193 	 -0.0295647 	 96.5129 	 
H 	 -38.8509 	 -0.783662 	 97.266 	 
H 	 -38.1803 	 0.514498 	 96.4917 	 
C 	 -39.2811 	 -0.676798 	 95.1498 	 
H 	 -39.3913 	 0.175425 	 94.4907 	 
H 	 -40.1949 	 -1.31241 	 95.0477 	 
C 	 -38.0986 	 -1.58827 	 94.7123 	 
H 	 -37.1622 	 -1.09874 	 94.8503 	 
H 	 -38.1474 	 -1.93928 	 93.7183 	 
H 	 -38.0631 	 -2.51828 	 95.3141 	 
H 	 -36.999 	 3.43332 	 101.038 	 
H 	 -43.5082 	 1.62877 	 96.2138 	 
