34

S 	 -3.39486 	 28.0968 	 47.0895 	 
C 	 -2.57484 	 27.5653 	 45.6265 	 
C 	 -2.65662 	 28.4545 	 44.6232 	 
C 	 -3.42706 	 29.6046 	 44.9505 	 
C 	 -3.86152 	 29.5941 	 46.2811 	 
H 	 -3.54478 	 30.5076 	 44.3563 	 
C 	 -2.15659 	 28.2764 	 43.2147 	 
H 	 -2.49363 	 29.0441 	 42.5223 	 
H 	 -2.70936 	 27.4309 	 42.8448 	 
C 	 -0.642928 	 28.2157 	 42.9828 	 
H 	 -0.219885 	 29.1405 	 43.4563 	 
H 	 -0.153625 	 27.4256 	 43.5295 	 
C 	 -0.397623 	 28.156 	 41.5008 	 
H 	 -1.07126 	 27.3919 	 41.0136 	 
H 	 -0.743299 	 29.0797 	 41.0377 	 
H 	 0.660765 	 28.0429 	 41.2999 	 
S 	 -6.15636 	 30.5657 	 47.2711 	 
C 	 -6.20015 	 32.2734 	 47.8252 	 
C 	 -4.94508 	 32.8613 	 47.7 	 
C 	 -3.93447 	 31.9589 	 47.241 	 
C 	 -4.46016 	 30.7282 	 46.9316 	 
H 	 -4.78659 	 33.9092 	 47.934 	 
C 	 -2.45581 	 32.2858 	 47.3017 	 
H 	 -1.89746 	 31.6331 	 46.5975 	 
H 	 -2.05136 	 31.9804 	 48.282 	 
C 	 -2.01721 	 33.7568 	 46.9405 	 
H 	 -2.23862 	 34.4971 	 47.6691 	 
H 	 -2.59267 	 34.1556 	 46.0908 	 
C 	 -0.455246 	 33.9411 	 46.7926 	 
H 	 -0.141139 	 34.8228 	 47.3884 	 
H 	 -0.130814 	 34.1756 	 45.7824 	 
H 	 0.207124 	 33.1814 	 47.1869 	 
H 	 -2.2448 	 26.5293 	 45.604 	 
H 	 -7.07781 	 32.8059 	 48.0604 	 
