34

S 	 -32.0406 	 55.8702 	 105.979 	 
C 	 -30.4572 	 55.5769 	 105.303 	 
C 	 -29.5475 	 56.5057 	 105.723 	 
C 	 -30.1283 	 57.3881 	 106.689 	 
C 	 -31.4728 	 57.1062 	 107.003 	 
H 	 -29.6606 	 58.3226 	 107.065 	 
C 	 -28.197 	 56.7748 	 105.083 	 
H 	 -28.2192 	 57.7862 	 104.709 	 
H 	 -28.0649 	 56.0631 	 104.237 	 
C 	 -27.0685 	 56.6845 	 106.123 	 
H 	 -27.1935 	 57.3394 	 107.004 	 
H 	 -27.1709 	 55.6604 	 106.566 	 
C 	 -25.6396 	 56.8583 	 105.546 	 
H 	 -25.6591 	 57.8773 	 105.269 	 
H 	 -24.8391 	 56.8473 	 106.245 	 
H 	 -25.447 	 56.0956 	 104.782 	 
S 	 -32.4128 	 59.5805 	 107.42 	 
C 	 -33.4954 	 59.9304 	 108.718 	 
C 	 -34.0023 	 58.7975 	 109.243 	 
C 	 -33.363 	 57.6421 	 108.735 	 
C 	 -32.3715 	 57.918 	 107.826 	 
H 	 -34.6667 	 58.8665 	 110.09 	 
C 	 -33.636 	 56.2403 	 109.364 	 
H 	 -33.7993 	 56.4812 	 110.437 	 
H 	 -32.8749 	 55.4064 	 109.377 	 
C 	 -34.889 	 55.502 	 108.799 	 
H 	 -34.7488 	 55.243 	 107.768 	 
H 	 -35.602 	 56.4161 	 108.663 	 
C 	 -35.5961 	 54.318 	 109.496 	 
H 	 -34.9358 	 53.5478 	 109.853 	 
H 	 -36.3911 	 53.8901 	 108.931 	 
H 	 -36.0867 	 54.7227 	 110.389 	 
H 	 -30.2308 	 55.0071 	 104.359 	 
H 	 -33.8694 	 60.9272 	 108.95 	 
