34

S 	 11.3923 	 -17.5949 	 89.3072 	 
C 	 13.1859 	 -17.6226 	 88.9663 	 
C 	 13.7355 	 -16.3526 	 89.0361 	 
C 	 12.755 	 -15.3405 	 89.2373 	 
C 	 11.4366 	 -15.7458 	 89.3336 	 
H 	 13.0017 	 -14.2865 	 89.0885 	 
C 	 15.1169 	 -15.9882 	 88.7275 	 
H 	 15.8139 	 -16.6191 	 89.2653 	 
H 	 15.2879 	 -14.9515 	 89.1301 	 
C 	 15.5008 	 -16.0027 	 87.2735 	 
H 	 15.5211 	 -17.0188 	 86.9093 	 
H 	 14.7397 	 -15.5384 	 86.7549 	 
C 	 16.6815 	 -15.1855 	 86.8811 	 
H 	 16.8082 	 -15.1401 	 85.7846 	 
H 	 16.7243 	 -14.1461 	 87.2869 	 
H 	 17.5006 	 -15.7024 	 87.3812 	 
S 	 9.1036 	 -15.3918 	 90.7967 	 
C 	 8.04097 	 -14.0384 	 90.5673 	 
C 	 8.54321 	 -13.3521 	 89.4997 	 
C 	 9.78962 	 -13.7858 	 88.9231 	 
C 	 10.2415 	 -14.9346 	 89.5137 	 
H 	 7.84049 	 -12.6256 	 89.0902 	 
C 	 10.4258 	 -13.1479 	 87.6812 	 
H 	 9.59143 	 -13.086 	 86.9183 	 
H 	 11.1094 	 -13.8737 	 87.3645 	 
C 	 11.0921 	 -11.8037 	 87.9046 	 
H 	 11.8588 	 -11.993 	 88.6468 	 
H 	 10.3618 	 -11.1677 	 88.4296 	 
C 	 11.72 	 -11.2102 	 86.6404 	 
H 	 11.0955 	 -10.7822 	 85.913 	 
H 	 12.1471 	 -12.049 	 86.1954 	 
H 	 12.3798 	 -10.3805 	 86.9754 	 
H 	 13.8482 	 -18.5295 	 89.0971 	 
H 	 7.06566 	 -13.8726 	 91.0039 	 
