34

S 	 -36.2908 	 48.418 	 105.165 	 
C 	 -36.0327 	 48.5019 	 106.909 	 
C 	 -37.2483 	 48.4586 	 107.642 	 
C 	 -38.3653 	 48.5561 	 106.739 	 
C 	 -38.034 	 48.6339 	 105.396 	 
H 	 -39.3606 	 48.6563 	 107.094 	 
C 	 -37.3754 	 48.5215 	 109.123 	 
H 	 -36.4678 	 48.2304 	 109.593 	 
H 	 -38.157 	 47.8621 	 109.245 	 
C 	 -37.7904 	 49.9321 	 109.599 	 
H 	 -38.7467 	 50.243 	 109.274 	 
H 	 -37.9183 	 49.9775 	 110.678 	 
C 	 -36.7801 	 51.0629 	 109.415 	 
H 	 -35.9198 	 50.9249 	 110.148 	 
H 	 -36.491 	 51.2646 	 108.408 	 
H 	 -37.3398 	 51.9382 	 109.668 	 
S 	 -38.4834 	 49.8909 	 102.997 	 
C 	 -40.0677 	 49.9817 	 102.268 	 
C 	 -40.8836 	 49.1065 	 102.914 	 
C 	 -40.2956 	 48.5019 	 104.065 	 
C 	 -38.9878 	 48.8924 	 104.284 	 
H 	 -41.6995 	 48.7461 	 102.403 	 
C 	 -41.0914 	 47.5783 	 104.918 	 
H 	 -40.5057 	 46.8415 	 105.467 	 
H 	 -41.7182 	 46.7574 	 104.409 	 
C 	 -42.0538 	 48.3281 	 105.932 	 
H 	 -42.8663 	 48.6946 	 105.28 	 
H 	 -41.6164 	 49.2072 	 106.296 	 
C 	 -42.6832 	 47.4168 	 107.022 	 
H 	 -43.474 	 47.9731 	 107.507 	 
H 	 -41.9364 	 47.3105 	 107.778 	 
H 	 -43.0476 	 46.5019 	 106.63 	 
H 	 -35.1299 	 48.3281 	 107.416 	 
H 	 -40.3321 	 50.4847 	 101.328 	 
