34

S 	 -1.16111 	 10.6064 	 86.2966 	 
C 	 -1.88189 	 11.0269 	 84.7612 	 
C 	 -1.01875 	 11.0104 	 83.658 	 
C 	 0.291129 	 10.7062 	 84.1232 	 
C 	 0.4288 	 10.5142 	 85.5372 	 
H 	 1.06365 	 10.6637 	 83.4116 	 
C 	 -1.37367 	 11.2827 	 82.2385 	 
H 	 -2.35264 	 10.8082 	 82.2224 	 
H 	 -0.773672 	 10.6432 	 81.6104 	 
C 	 -1.17103 	 12.72 	 81.6503 	 
H 	 -2.12077 	 13.1569 	 81.8762 	 
H 	 -0.424367 	 13.2645 	 82.2184 	 
C 	 -0.925899 	 12.803 	 80.1358 	 
H 	 -1.88883 	 12.6962 	 79.6283 	 
H 	 -0.453944 	 13.7897 	 79.8494 	 
H 	 -0.294323 	 11.9838 	 79.905 	 
S 	 1.38237 	 10.0213 	 88.1486 	 
C 	 3.12965 	 10.1188 	 88.4375 	 
C 	 3.80775 	 10.2739 	 87.2779 	 
C 	 3.02057 	 10.5235 	 86.1043 	 
C 	 1.65159 	 10.3597 	 86.3639 	 
H 	 4.90318 	 10.4183 	 87.2833 	 
C 	 3.70189 	 10.7263 	 84.7685 	 
H 	 3.10255 	 10.4721 	 83.9554 	 
H 	 4.49481 	 9.95114 	 84.6362 	 
C 	 4.44257 	 12.0603 	 84.4939 	 
H 	 5.14583 	 12.3552 	 85.2378 	 
H 	 3.77188 	 12.9799 	 84.496 	 
C 	 5.00012 	 12.0265 	 83.0791 	 
H 	 4.37078 	 11.8085 	 82.2084 	 
H 	 5.7736 	 11.2484 	 82.9941 	 
H 	 5.51028 	 13.0213 	 82.9743 	 
H 	 -2.95994 	 11.1937 	 84.6942 	 
H 	 3.6197 	 10.119 	 89.4239 	 
