34

S 	 49.9471 	 11.7174 	 78.6415 	 
C 	 48.8458 	 10.4213 	 78.8964 	 
C 	 47.8884 	 10.6623 	 79.8879 	 
C 	 48.1061 	 11.9461 	 80.4452 	 
C 	 49.0868 	 12.661 	 79.8534 	 
H 	 47.5935 	 12.5328 	 81.1823 	 
C 	 46.9107 	 9.60542 	 80.3902 	 
H 	 47.2097 	 8.65032 	 79.9579 	 
H 	 45.9404 	 9.83656 	 79.9378 	 
C 	 46.9232 	 9.46054 	 81.8493 	 
H 	 47.9821 	 9.15451 	 82.1632 	 
H 	 46.8017 	 10.4162 	 82.3854 	 
C 	 45.7748 	 8.48442 	 82.2795 	 
H 	 45.6617 	 8.3783 	 83.3221 	 
H 	 44.7717 	 8.70135 	 81.9067 	 
H 	 45.8986 	 7.52206 	 81.8826 	 
S 	 50.9153 	 14.5632 	 80.8499 	 
C 	 50.5235 	 16.2918 	 80.6335 	 
C 	 49.3527 	 16.4264 	 79.9011 	 
C 	 48.754 	 15.2008 	 79.5363 	 
C 	 49.4245 	 14.1141 	 80.0241 	 
H 	 48.9873 	 17.4023 	 79.5266 	 
C 	 47.5252 	 15.1311 	 78.6449 	 
H 	 47.5188 	 14.1197 	 78.1979 	 
H 	 47.6584 	 15.7499 	 77.7951 	 
C 	 46.1962 	 15.449 	 79.2478 	 
H 	 46.2213 	 16.3736 	 79.7293 	 
H 	 46.0797 	 14.6452 	 80.0349 	 
C 	 45.0696 	 15.2884 	 78.2095 	 
H 	 45.2326 	 16.014 	 77.4126 	 
H 	 44.1661 	 15.5818 	 78.6544 	 
H 	 44.9033 	 14.2596 	 77.8263 	 
H 	 48.9961 	 9.44739 	 78.5082 	 
H 	 51.1834 	 17.0876 	 80.9456 	 
