34

S 	 -73.752 	 43.1181 	 125.338 	 
C 	 -73.7808 	 41.3569 	 125.544 	 
C 	 -72.5245 	 40.8889 	 125.79 	 
C 	 -71.5309 	 41.9226 	 125.851 	 
C 	 -72.0061 	 43.2083 	 125.766 	 
H 	 -70.4273 	 41.6964 	 125.898 	 
C 	 -72.192 	 39.4573 	 125.826 	 
H 	 -73.1051 	 38.8378 	 125.625 	 
H 	 -72.0762 	 39.2987 	 126.857 	 
C 	 -71.0651 	 39.0413 	 124.833 	 
H 	 -70.2354 	 39.6369 	 125.16 	 
H 	 -70.8143 	 38.0056 	 125.075 	 
C 	 -71.3251 	 39.3569 	 123.348 	 
H 	 -71.6522 	 40.392 	 123.163 	 
H 	 -70.5072 	 39.1883 	 122.718 	 
H 	 -72.1061 	 38.6026 	 123.11 	 
S 	 -71.2544 	 45.0507 	 123.762 	 
C 	 -70.0915 	 46.3075 	 124.166 	 
C 	 -69.65 	 46.1933 	 125.435 	 
C 	 -70.2901 	 45.1208 	 126.169 	 
C 	 -71.2199 	 44.4152 	 125.44 	 
H 	 -68.9873 	 46.9383 	 125.842 	 
C 	 -70.0166 	 44.9774 	 127.642 	 
H 	 -69.3673 	 44.0863 	 127.741 	 
H 	 -70.9078 	 44.645 	 128.142 	 
C 	 -69.3318 	 46.1578 	 128.435 	 
H 	 -68.4232 	 46.555 	 127.923 	 
H 	 -68.9636 	 45.7266 	 129.384 	 
C 	 -70.3447 	 47.3502 	 128.759 	 
H 	 -71.1188 	 46.9473 	 129.372 	 
H 	 -70.8606 	 47.7176 	 127.909 	 
H 	 -69.8159 	 48.2446 	 129.128 	 
H 	 -74.5714 	 40.6915 	 125.352 	 
H 	 -69.7915 	 47.0722 	 123.527 	 
