34

S 	 10.1179 	 21.108 	 56.8359 	 
C 	 9.99473 	 19.4435 	 56.2427 	 
C 	 8.95988 	 18.7924 	 56.8674 	 
C 	 8.07013 	 19.6861 	 57.6136 	 
C 	 8.50144 	 21.0189 	 57.6384 	 
H 	 7.15971 	 19.3188 	 58.0864 	 
C 	 8.72315 	 17.2861 	 56.9273 	 
H 	 8.73826 	 17.0572 	 55.9303 	 
H 	 7.78334 	 17.1534 	 57.3477 	 
C 	 9.87523 	 16.4473 	 57.5773 	 
H 	 9.58956 	 15.4072 	 57.5422 	 
H 	 10.7795 	 16.4085 	 56.9696 	 
C 	 10.1718 	 16.9592 	 58.9725 	 
H 	 10.5608 	 17.9072 	 58.9624 	 
H 	 9.31308 	 17.101 	 59.5247 	 
H 	 10.936 	 16.2948 	 59.5085 	 
S 	 8.57877 	 23.5567 	 58.857 	 
C 	 7.12655 	 24.3589 	 59.322 	 
C 	 6.06822 	 23.5458 	 59.0288 	 
C 	 6.40933 	 22.3563 	 58.3799 	 
C 	 7.7715 	 22.1431 	 58.1981 	 
H 	 5.04079 	 23.7852 	 59.1954 	 
C 	 5.34087 	 21.4229 	 57.9092 	 
H 	 5.66196 	 20.7665 	 57.0722 	 
H 	 4.61665 	 22.1151 	 57.4603 	 
C 	 4.66439 	 20.6333 	 59.0137 	 
H 	 4.45314 	 21.2915 	 59.8268 	 
H 	 5.38222 	 20.0044 	 59.5387 	 
C 	 3.39522 	 19.934 	 58.3861 	 
H 	 2.70638 	 20.628 	 57.8966 	 
H 	 2.88791 	 19.5288 	 59.2511 	 
H 	 3.72074 	 19.1697 	 57.7568 	 
H 	 10.6711 	 18.8665 	 55.5922 	 
H 	 7.00961 	 25.3582 	 59.7244 	 
