34

S 	 -17.2326 	 55.2319 	 62.8234 	 
C 	 -16.2901 	 53.8344 	 62.3642 	 
C 	 -14.9477 	 54.0801 	 62.5452 	 
C 	 -14.6271 	 55.2101 	 63.3571 	 
C 	 -15.7869 	 56.0161 	 63.4762 	 
H 	 -13.7413 	 55.6669 	 63.6272 	 
C 	 -13.9032 	 53.1071 	 62.0026 	 
H 	 -12.9573 	 53.6145 	 61.8519 	 
H 	 -14.243 	 52.754 	 60.9625 	 
C 	 -13.6349 	 51.8795 	 62.8955 	 
H 	 -13.3705 	 52.2422 	 63.8632 	 
H 	 -14.4835 	 51.2698 	 62.8739 	 
C 	 -12.4802 	 51.0699 	 62.3317 	 
H 	 -12.5063 	 50.8955 	 61.237 	 
H 	 -11.6165 	 51.7126 	 62.4495 	 
H 	 -12.4726 	 50.1254 	 62.83 	 
S 	 -16.5348 	 58.6745 	 62.9792 	 
C 	 -16.198 	 59.8183 	 64.2519 	 
C 	 -15.5866 	 59.2491 	 65.375 	 
C 	 -15.4788 	 57.8373 	 65.2212 	 
C 	 -15.8606 	 57.3663 	 64.023 	 
H 	 -15.1061 	 59.8187 	 66.165 	 
C 	 -14.7305 	 57.0596 	 66.3389 	 
H 	 -14.6121 	 56.0151 	 66.0793 	 
H 	 -15.3935 	 56.9242 	 67.0981 	 
C 	 -13.4483 	 57.6449 	 66.9536 	 
H 	 -13.6519 	 58.5816 	 67.4172 	 
H 	 -12.7388 	 57.859 	 66.1165 	 
C 	 -12.7945 	 56.7305 	 67.9329 	 
H 	 -11.7992 	 57.0501 	 68.2408 	 
H 	 -12.5876 	 55.7546 	 67.4073 	 
H 	 -13.3605 	 56.5435 	 68.9043 	 
H 	 -16.6701 	 53.1836 	 61.5979 	 
H 	 -16.4444 	 60.8655 	 64.1388 	 
