34

S 	 -30.6312 	 68.063 	 107.58 	 
C 	 -29.2826 	 69.1213 	 107.303 	 
C 	 -28.0293 	 68.4965 	 107.326 	 
C 	 -28.2537 	 67.1676 	 107.718 	 
C 	 -29.5639 	 66.7371 	 108.01 	 
H 	 -27.5036 	 66.4779 	 107.876 	 
C 	 -26.688 	 69.0185 	 106.977 	 
H 	 -25.9329 	 68.4474 	 107.449 	 
H 	 -26.6671 	 70.0776 	 107.385 	 
C 	 -26.5062 	 69.166 	 105.434 	 
H 	 -25.5116 	 69.4676 	 105.192 	 
H 	 -26.6731 	 68.2025 	 104.945 	 
C 	 -27.3181 	 70.0979 	 104.604 	 
H 	 -26.8599 	 70.0487 	 103.588 	 
H 	 -28.3806 	 69.8708 	 104.631 	 
H 	 -27.1544 	 71.1541 	 104.861 	 
S 	 -29.8698 	 64.8827 	 109.907 	 
C 	 -30.7625 	 63.4125 	 109.538 	 
C 	 -30.9517 	 63.3124 	 108.14 	 
C 	 -30.5516 	 64.4866 	 107.423 	 
C 	 -30.0526 	 65.4225 	 108.281 	 
H 	 -31.3758 	 62.3617 	 107.805 	 
C 	 -30.7726 	 64.7083 	 105.98 	 
H 	 -29.8396 	 65.0727 	 105.55 	 
H 	 -31.4726 	 65.5682 	 105.756 	 
C 	 -31.1298 	 63.5727 	 105.043 	 
H 	 -31.2631 	 64.0777 	 104.017 	 
H 	 -32.0412 	 63.0897 	 105.385 	 
C 	 -30.0127 	 62.5133 	 104.996 	 
H 	 -29.7546 	 62.0883 	 105.927 	 
H 	 -28.9953 	 62.7946 	 104.579 	 
H 	 -30.2936 	 61.6544 	 104.353 	 
H 	 -29.2589 	 70.1542 	 106.751 	 
H 	 -30.9213 	 62.6593 	 110.258 	 
