34

S 	 -36.1722 	 73.5068 	 148.773 	 
C 	 -34.46 	 73.8184 	 149.001 	 
C 	 -33.8093 	 72.8125 	 149.679 	 
C 	 -34.7191 	 71.7451 	 149.935 	 
C 	 -36.0036 	 71.9045 	 149.512 	 
H 	 -34.5593 	 70.8528 	 150.465 	 
C 	 -32.3826 	 72.9046 	 150.143 	 
H 	 -32.1195 	 72.0655 	 150.707 	 
H 	 -32.3103 	 73.8182 	 150.715 	 
C 	 -31.36 	 73.0223 	 148.981 	 
H 	 -31.7159 	 72.4422 	 148.077 	 
H 	 -31.2856 	 74.0842 	 148.755 	 
C 	 -29.974 	 72.57 	 149.274 	 
H 	 -29.6216 	 73.2454 	 150.06 	 
H 	 -29.8164 	 71.5951 	 149.657 	 
H 	 -29.3736 	 72.7943 	 148.354 	 
S 	 -37.8736 	 70.5369 	 148.137 	 
C 	 -38.4016 	 69.0537 	 148.888 	 
C 	 -38.0934 	 68.9625 	 150.2 	 
C 	 -37.2186 	 69.9621 	 150.663 	 
C 	 -37.0322 	 70.9261 	 149.621 	 
H 	 -38.382 	 68.0834 	 150.691 	 
C 	 -36.8146 	 70.064 	 152.125 	 
H 	 -37.7306 	 70.3911 	 152.659 	 
H 	 -36.0588 	 70.8737 	 152.183 	 
C 	 -36.3251 	 68.7532 	 152.723 	 
H 	 -35.5095 	 68.3579 	 152.062 	 
H 	 -37.2087 	 68.1609 	 152.971 	 
C 	 -35.6222 	 68.9536 	 154.023 	 
H 	 -36.3346 	 69.2806 	 154.81 	 
H 	 -34.803 	 69.6516 	 153.89 	 
H 	 -35.2326 	 67.9866 	 154.381 	 
H 	 -33.9529 	 74.6983 	 148.76 	 
H 	 -38.9941 	 68.1658 	 148.57 	 
