34

S 	 -24.1906 	 51.4279 	 65.078 	 
C 	 -22.6872 	 52.2583 	 64.7384 	 
C 	 -21.6199 	 51.7527 	 65.4378 	 
C 	 -22.0464 	 50.7502 	 66.3305 	 
C 	 -23.4069 	 50.4667 	 66.305 	 
H 	 -21.347 	 50.1637 	 66.8947 	 
C 	 -20.1402 	 52.0783 	 65.1205 	 
H 	 -19.7247 	 52.4882 	 66.0061 	 
H 	 -20.1559 	 52.9733 	 64.4389 	 
C 	 -19.3046 	 50.9026 	 64.6337 	 
H 	 -18.2709 	 51.2003 	 64.7335 	 
H 	 -19.3584 	 50.1803 	 65.4221 	 
C 	 -19.7521 	 50.3262 	 63.2429 	 
H 	 -19.2542 	 49.3654 	 62.9987 	 
H 	 -20.7594 	 50.2514 	 63.1035 	 
H 	 -19.2588 	 50.9989 	 62.549 	 
S 	 -25.303 	 50.0508 	 68.2981 	 
C 	 -25.5297 	 48.3972 	 68.8433 	 
C 	 -24.6087 	 47.5503 	 68.307 	 
C 	 -23.7043 	 48.1632 	 67.4089 	 
C 	 -24.1101 	 49.4784 	 67.1396 	 
H 	 -24.5967 	 46.5384 	 68.5878 	 
C 	 -22.5659 	 47.3674 	 66.7901 	 
H 	 -21.6848 	 47.975 	 66.442 	 
H 	 -22.8956 	 47.1033 	 65.7865 	 
C 	 -21.977 	 46.177 	 67.5801 	 
H 	 -22.6368 	 45.3837 	 67.7066 	 
H 	 -21.7422 	 46.5634 	 68.55 	 
C 	 -20.7176 	 45.4838 	 66.9845 	 
H 	 -20.9745 	 44.9447 	 66.1163 	 
H 	 -20.3862 	 44.7452 	 67.6928 	 
H 	 -19.9645 	 46.1756 	 66.7747 	 
H 	 -22.6339 	 52.9901 	 63.9393 	 
H 	 -26.384 	 48.0918 	 69.4293 	 
