34

S 	 -44.2565 	 25.2587 	 84.0631 	 
C 	 -44.8576 	 23.7939 	 83.2229 	 
C 	 -43.9337 	 22.7874 	 83.3308 	 
C 	 -42.7335 	 23.2931 	 83.9974 	 
C 	 -42.7319 	 24.5729 	 84.453 	 
H 	 -41.8313 	 22.5958 	 84.1737 	 
C 	 -43.9534 	 21.3404 	 82.8956 	 
H 	 -42.9548 	 20.9765 	 82.5425 	 
H 	 -44.5699 	 21.1877 	 82.0678 	 
C 	 -44.5189 	 20.4277 	 83.9538 	 
H 	 -44.333 	 19.462 	 83.5153 	 
H 	 -44.0465 	 20.4832 	 84.9456 	 
C 	 -46.0374 	 20.6194 	 84.1679 	 
H 	 -46.2179 	 21.654 	 84.4182 	 
H 	 -46.5829 	 20.5013 	 83.2332 	 
H 	 -46.4795 	 20.074 	 84.9865 	 
S 	 -42.1312 	 27.1088 	 85.3737 	 
C 	 -40.5873 	 27.3951 	 86.164 	 
C 	 -39.8298 	 26.248 	 86.281 	 
C 	 -40.4778 	 25.1003 	 85.7586 	 
C 	 -41.7434 	 25.3853 	 85.1827 	 
H 	 -38.8434 	 26.3851 	 86.7834 	 
C 	 -39.7362 	 23.7812 	 85.8196 	 
H 	 -38.6367 	 23.8941 	 85.7055 	 
H 	 -39.9789 	 23.2596 	 84.9438 	 
C 	 -40.073 	 22.9303 	 87.0358 	 
H 	 -41.1583 	 22.9426 	 86.9831 	 
H 	 -39.981 	 23.5969 	 87.9789 	 
C 	 -39.3719 	 21.5846 	 87.1482 	 
H 	 -39.5137 	 20.9932 	 88.0318 	 
H 	 -38.3037 	 21.696 	 87.0577 	 
H 	 -39.6049 	 20.9368 	 86.2348 	 
H 	 -45.8788 	 23.5275 	 82.9282 	 
H 	 -40.2898 	 28.2863 	 86.6229 	 
