34

S 	 -107.709 	 52.8845 	 112.262 	 
C 	 -108.6 	 52.2685 	 113.618 	 
C 	 -108.481 	 52.9668 	 114.828 	 
C 	 -107.556 	 54.0338 	 114.585 	 
C 	 -107.051 	 54.1617 	 113.333 	 
H 	 -107.253 	 54.6803 	 115.335 	 
C 	 -109.205 	 52.7491 	 116.143 	 
H 	 -108.677 	 53.2588 	 116.887 	 
H 	 -109.165 	 51.6274 	 116.334 	 
C 	 -110.659 	 53.2862 	 116.284 	 
H 	 -111.224 	 52.9814 	 115.45 	 
H 	 -111.075 	 52.684 	 117.102 	 
C 	 -110.664 	 54.7783 	 116.467 	 
H 	 -111.73 	 55.0773 	 116.553 	 
H 	 -110.163 	 55.0288 	 117.402 	 
H 	 -110.102 	 55.2957 	 115.692 	 
S 	 -104.756 	 54.5074 	 111.921 	 
C 	 -103.946 	 56.005 	 111.826 	 
C 	 -104.256 	 56.7591 	 112.909 	 
C 	 -105.483 	 56.2842 	 113.552 	 
C 	 -105.985 	 55.1065 	 112.978 	 
H 	 -103.654 	 57.572 	 113.13 	 
C 	 -105.995 	 57.077 	 114.691 	 
H 	 -105.328 	 56.953 	 115.524 	 
H 	 -106.898 	 56.6921 	 115.035 	 
C 	 -106.265 	 58.5923 	 114.492 	 
H 	 -105.274 	 58.9573 	 114.218 	 
H 	 -106.546 	 59.0782 	 115.407 	 
C 	 -107.285 	 59.0176 	 113.401 	 
H 	 -108.325 	 58.8771 	 113.694 	 
H 	 -107.086 	 58.4673 	 112.477 	 
H 	 -107.247 	 60.0632 	 113.202 	 
H 	 -109.205 	 51.3903 	 113.623 	 
H 	 -103.054 	 56.2809 	 111.237 	 
