34

S 	 4.35377 	 -16.1528 	 49.3952 	 
C 	 2.60309 	 -16.0143 	 49.3384 	 
C 	 2.07697 	 -15.1725 	 50.3479 	 
C 	 3.07953 	 -14.6372 	 51.1934 	 
C 	 4.3376 	 -15.0273 	 50.8236 	 
H 	 2.9635 	 -13.8244 	 51.9229 	 
C 	 0.599114 	 -14.7793 	 50.5788 	 
H 	 0.428471 	 -14.8697 	 51.6577 	 
H 	 0.04533 	 -15.5915 	 50.133 	 
C 	 0.307651 	 -13.4523 	 49.9059 	 
H 	 -0.648584 	 -13.0109 	 50.2736 	 
H 	 1.0668 	 -12.7257 	 50.1544 	 
C 	 0.249635 	 -13.4992 	 48.4728 	 
H 	 -0.626259 	 -14.155 	 48.1847 	 
H 	 -0.0323082 	 -12.5408 	 48.0252 	 
H 	 1.1082 	 -13.9723 	 48.1174 	 
S 	 6.50751 	 -15.9754 	 52.3192 	 
C 	 7.77213 	 -14.8914 	 52.7619 	 
C 	 7.47024 	 -13.6396 	 52.3074 	 
C 	 6.24779 	 -13.4756 	 51.5897 	 
C 	 5.58592 	 -14.6607 	 51.4924 	 
H 	 8.28696 	 -12.9775 	 52.2853 	 
C 	 5.85624 	 -12.1682 	 50.9154 	 
H 	 5.18215 	 -12.5206 	 50.1251 	 
H 	 6.7545 	 -11.7569 	 50.4378 	 
C 	 4.96561 	 -11.2261 	 51.7998 	 
H 	 5.61029 	 -11.1051 	 52.6767 	 
H 	 4.06741 	 -11.8017 	 52.0669 	 
C 	 4.53832 	 -9.88976 	 51.161 	 
H 	 3.74803 	 -9.93569 	 50.4364 	 
H 	 5.36289 	 -9.54748 	 50.5645 	 
H 	 4.20027 	 -9.23537 	 51.9887 	 
H 	 2.08325 	 -16.5587 	 48.6001 	 
H 	 8.70044 	 -15.2136 	 53.2787 	 
