34

S 	 -21.3764 	 48.5207 	 65.1119 	 
C 	 -20.5391 	 47.0649 	 65.6112 	 
C 	 -21.1025 	 46.6567 	 66.8465 	 
C 	 -22.0818 	 47.5622 	 67.3246 	 
C 	 -22.2547 	 48.6601 	 66.5694 	 
H 	 -22.6949 	 47.451 	 68.259 	 
C 	 -20.7028 	 45.3919 	 67.5835 	 
H 	 -20.4507 	 45.5295 	 68.6012 	 
H 	 -19.775 	 44.9292 	 67.067 	 
C 	 -21.7515 	 44.2996 	 67.6838 	 
H 	 -21.3225 	 43.4311 	 68.1178 	 
H 	 -22.5368 	 44.5438 	 68.3414 	 
C 	 -22.2869 	 43.8322 	 66.3091 	 
H 	 -22.8635 	 42.9212 	 66.235 	 
H 	 -22.9203 	 44.6067 	 65.858 	 
H 	 -21.4049 	 43.6788 	 65.6528 	 
S 	 -23.723 	 50.7557 	 65.4481 	 
C 	 -24.9043 	 51.5469 	 66.3728 	 
C 	 -24.801 	 51.2751 	 67.7101 	 
C 	 -23.8369 	 50.1951 	 68.0113 	 
C 	 -23.1344 	 49.8046 	 66.8735 	 
H 	 -25.448 	 51.8528 	 68.3796 	 
C 	 -23.5672 	 49.7448 	 69.4477 	 
H 	 -22.5379 	 49.3879 	 69.4952 	 
H 	 -24.105 	 48.7817 	 69.6174 	 
C 	 -23.849 	 50.7335 	 70.6604 	 
H 	 -24.9299 	 50.8818 	 70.8914 	 
H 	 -23.4517 	 51.6731 	 70.3706 	 
C 	 -23.1647 	 50.2933 	 72.041 	 
H 	 -22.1933 	 50.7365 	 72.0413 	 
H 	 -23.1261 	 49.2247 	 72.2737 	 
H 	 -23.6783 	 50.8071 	 72.8949 	 
H 	 -19.757 	 46.5737 	 65.0122 	 
H 	 -25.6199 	 52.3451 	 66.1632 	 
