34

S 	 -34.947 	 55.4504 	 112.95 	 
C 	 -34.9084 	 56.5654 	 111.59 	 
C 	 -35.6917 	 57.7061 	 111.809 	 
C 	 -36.2041 	 57.7643 	 113.131 	 
C 	 -36.0499 	 56.5736 	 113.798 	 
H 	 -36.6928 	 58.6058 	 113.622 	 
C 	 -36.077 	 58.7274 	 110.845 	 
H 	 -35.9309 	 58.37 	 109.848 	 
H 	 -35.471 	 59.5357 	 110.909 	 
C 	 -37.5067 	 59.169 	 110.787 	 
H 	 -37.8795 	 59.7455 	 111.692 	 
H 	 -37.6035 	 59.833 	 109.872 	 
C 	 -38.4743 	 58.0473 	 110.676 	 
H 	 -38.4542 	 57.3386 	 111.489 	 
H 	 -39.376 	 58.5448 	 110.567 	 
H 	 -38.2469 	 57.3971 	 109.834 	 
S 	 -35.2223 	 55.6382 	 116.239 	 
C 	 -36.4602 	 55.7111 	 117.551 	 
C 	 -37.6262 	 56.2922 	 117.139 	 
C 	 -37.658 	 56.734 	 115.791 	 
C 	 -36.4084 	 56.4405 	 115.188 	 
H 	 -38.527 	 56.2743 	 117.804 	 
C 	 -38.9772 	 57.2908 	 115.275 	 
H 	 -39.6542 	 56.4908 	 115.202 	 
H 	 -38.9 	 57.605 	 114.239 	 
C 	 -39.4393 	 58.4809 	 116.157 	 
H 	 -38.6884 	 59.3501 	 116.209 	 
H 	 -39.4357 	 58.1386 	 117.203 	 
C 	 -40.897 	 58.953 	 115.787 	 
H 	 -41.5285 	 58.1864 	 115.345 	 
H 	 -40.7188 	 59.6491 	 114.96 	 
H 	 -41.41 	 59.513 	 116.516 	 
H 	 -34.5903 	 56.2227 	 110.616 	 
H 	 -36.4093 	 55.3226 	 118.5 	 
