34

S 	 -33.6305 	 71.7888 	 172.089 	 
C 	 -32.6023 	 73.2262 	 172.157 	 
C 	 -33.2839 	 74.3765 	 171.843 	 
C 	 -34.6509 	 74.1174 	 171.489 	 
C 	 -34.9847 	 72.7508 	 171.488 	 
H 	 -35.419 	 74.806 	 171.199 	 
C 	 -32.6832 	 75.7756 	 171.743 	 
H 	 -31.7084 	 75.6719 	 172.183 	 
H 	 -33.2332 	 76.5005 	 172.375 	 
C 	 -32.5709 	 76.4377 	 170.368 	 
H 	 -32.0761 	 75.7978 	 169.664 	 
H 	 -33.5168 	 76.5175 	 169.854 	 
C 	 -31.7041 	 77.6573 	 170.381 	 
H 	 -32.2991 	 78.4516 	 170.691 	 
H 	 -30.8518 	 77.5357 	 170.996 	 
H 	 -31.2649 	 77.9887 	 169.459 	 
S 	 -36.3474 	 70.9771 	 169.649 	 
C 	 -37.9755 	 71.4329 	 169.37 	 
C 	 -38.4825 	 72.0658 	 170.491 	 
C 	 -37.521 	 72.3868 	 171.515 	 
C 	 -36.2244 	 72.1096 	 171.049 	 
H 	 -39.5283 	 72.3049 	 170.562 	 
C 	 -37.8711 	 72.9525 	 172.841 	 
H 	 -37.0212 	 73.3826 	 173.357 	 
H 	 -38.1998 	 72.2065 	 173.496 	 
C 	 -39.0205 	 74.0129 	 172.856 	 
H 	 -39.409 	 74.2057 	 173.894 	 
H 	 -39.856 	 73.6113 	 172.187 	 
C 	 -38.5099 	 75.2785 	 172.278 	 
H 	 -38.2687 	 75.081 	 171.222 	 
H 	 -37.5501 	 75.5254 	 172.753 	 
H 	 -39.1687 	 76.0897 	 172.282 	 
H 	 -31.6243 	 73.1132 	 172.555 	 
H 	 -38.5414 	 71.0684 	 168.541 	 
