34

S 	 -29.0326 	 58.0564 	 106.082 	 
C 	 -27.8445 	 59.3721 	 105.754 	 
C 	 -28.3427 	 60.6181 	 106.052 	 
C 	 -29.6866 	 60.4991 	 106.53 	 
C 	 -30.174 	 59.2048 	 106.678 	 
H 	 -30.3766 	 61.3265 	 106.739 	 
C 	 -27.7704 	 61.9531 	 105.595 	 
H 	 -27.1746 	 61.8274 	 104.67 	 
H 	 -27.194 	 62.2972 	 106.363 	 
C 	 -28.7808 	 63.0544 	 105.187 	 
H 	 -29.6617 	 62.5289 	 104.698 	 
H 	 -29.1838 	 63.5129 	 106.189 	 
C 	 -28.3753 	 64.1375 	 104.232 	 
H 	 -29.2217 	 64.5107 	 103.727 	 
H 	 -27.7999 	 64.9669 	 104.613 	 
H 	 -27.6462 	 63.7388 	 103.513 	 
S 	 -32.5631 	 58.1091 	 105.77 	 
C 	 -33.9686 	 58.2917 	 106.736 	 
C 	 -33.6611 	 58.8368 	 107.916 	 
C 	 -32.3057 	 59.0965 	 108.173 	 
C 	 -31.5709 	 58.9447 	 106.97 	 
H 	 -34.5519 	 58.9933 	 108.432 	 
C 	 -31.7781 	 59.5797 	 109.507 	 
H 	 -32.1978 	 60.5796 	 109.575 	 
H 	 -30.664 	 59.5757 	 109.592 	 
C 	 -32.3219 	 58.9588 	 110.716 	 
H 	 -31.9149 	 57.9368 	 110.837 	 
H 	 -33.3946 	 58.8458 	 110.727 	 
C 	 -32.1372 	 59.8319 	 111.972 	 
H 	 -32.3342 	 60.8648 	 111.959 	 
H 	 -31.0602 	 59.898 	 112.286 	 
H 	 -32.7469 	 59.4449 	 112.806 	 
H 	 -26.8823 	 59.3014 	 105.161 	 
H 	 -35.0418 	 58.0576 	 106.374 	 
