34

S 	 54.6192 	 3.26219 	 84.052 	 
C 	 53.6849 	 4.73715 	 83.6732 	 
C 	 52.7464 	 4.52058 	 82.7413 	 
C 	 52.7092 	 3.13085 	 82.2652 	 
C 	 53.5077 	 2.27748 	 83.0407 	 
H 	 52.0981 	 2.57318 	 81.4907 	 
C 	 51.7068 	 5.50063 	 82.1765 	 
H 	 51.9441 	 5.7111 	 81.1157 	 
H 	 51.7269 	 6.48672 	 82.6199 	 
C 	 50.204 	 5.26748 	 82.4999 	 
H 	 49.9148 	 4.23253 	 82.1911 	 
H 	 49.9835 	 5.42974 	 83.5268 	 
C 	 49.4543 	 6.26752 	 81.7049 	 
H 	 48.4323 	 5.97171 	 81.5798 	 
H 	 49.4531 	 7.19014 	 82.2887 	 
H 	 49.7099 	 6.57616 	 80.6704 	 
S 	 54.06 	 -0.0361 	 84.2731 	 
C 	 54.0207 	 -1.53023 	 83.4815 	 
C 	 53.7096 	 -1.38088 	 82.1382 	 
C 	 53.5159 	 -0.0139755 	 81.7668 	 
C 	 53.6449 	 0.86474 	 82.826 	 
H 	 53.5815 	 -2.19909 	 81.4369 	 
C 	 53.2369 	 0.279042 	 80.3415 	 
H 	 53.8045 	 1.22274 	 80.1213 	 
H 	 52.189 	 0.674203 	 80.2357 	 
C 	 53.7673 	 -0.679444 	 79.2295 	 
H 	 53.3551 	 -1.68407 	 79.3523 	 
H 	 54.8304 	 -0.764018 	 79.395 	 
C 	 53.2809 	 -0.255448 	 77.8493 	 
H 	 52.1962 	 -0.37274 	 77.7603 	 
H 	 53.5184 	 -0.879602 	 76.9604 	 
H 	 53.4333 	 0.809089 	 77.6464 	 
H 	 53.801 	 5.68034 	 84.2333 	 
H 	 54.2652 	 -2.44792 	 84.0189 	 
