34

S 	 53.6496 	 22.696 	 37.5854 	 
C 	 54.542 	 23.7707 	 36.5828 	 
C 	 54.8628 	 24.9568 	 37.1829 	 
C 	 54.3957 	 24.9531 	 38.5411 	 
C 	 53.8605 	 23.7806 	 38.9568 	 
H 	 54.5863 	 25.6779 	 39.3056 	 
C 	 55.5696 	 26.1139 	 36.4799 	 
H 	 54.9146 	 26.9972 	 36.5186 	 
H 	 55.6443 	 25.8231 	 35.4346 	 
C 	 56.9695 	 26.3665 	 36.9812 	 
H 	 56.9947 	 26.6276 	 38.0688 	 
H 	 57.4466 	 25.3679 	 36.8826 	 
C 	 57.743 	 27.5786 	 36.2899 	 
H 	 57.2413 	 28.5442 	 36.3719 	 
H 	 58.6991 	 27.5777 	 36.8008 	 
H 	 57.9198 	 27.1976 	 35.2575 	 
S 	 54.5619 	 23.9881 	 41.5265 	 
C 	 53.6314 	 23.1407 	 42.806 	 
C 	 52.4312 	 22.6542 	 42.3187 	 
C 	 52.3942 	 22.7419 	 40.8822 	 
C 	 53.4883 	 23.4412 	 40.2837 	 
H 	 51.7357 	 22.2204 	 42.9774 	 
C 	 51.2012 	 22.206 	 40.0584 	 
H 	 51.5964 	 21.6161 	 39.2411 	 
H 	 50.7356 	 23.0405 	 39.6859 	 
C 	 50.2 	 21.2965 	 40.8237 	 
H 	 49.8497 	 21.8871 	 41.6669 	 
H 	 50.5791 	 20.3845 	 41.2491 	 
C 	 48.9143 	 20.9776 	 39.959 	 
H 	 49.0439 	 20.2805 	 39.0893 	 
H 	 48.2679 	 21.7922 	 39.7126 	 
H 	 48.2338 	 20.4295 	 40.6971 	 
H 	 54.8416 	 23.4193 	 35.6252 	 
H 	 53.9761 	 23.1819 	 43.8104 	 
