34

S 	 2.42365 	 16.4163 	 88.1505 	 
C 	 2.65233 	 17.979 	 87.414 	 
C 	 3.908 	 18.2512 	 86.9522 	 
C 	 4.68775 	 17.1227 	 87.0251 	 
C 	 4.096 	 16.0989 	 87.7236 	 
H 	 5.70707 	 16.9524 	 86.6784 	 
C 	 4.37883 	 19.4858 	 86.2191 	 
H 	 5.46797 	 19.4698 	 86.2732 	 
H 	 3.98112 	 20.3499 	 86.6712 	 
C 	 3.86594 	 19.5205 	 84.7484 	 
H 	 4.12184 	 18.5929 	 84.1383 	 
H 	 2.78386 	 19.4154 	 84.7312 	 
C 	 4.31155 	 20.7613 	 84.0398 	 
H 	 3.93524 	 20.7197 	 82.9795 	 
H 	 3.90398 	 21.6735 	 84.4981 	 
H 	 5.39314 	 20.9101 	 84.0489 	 
S 	 3.70653 	 13.3937 	 87.3685 	 
C 	 4.84361 	 12.3139 	 88.1007 	 
C 	 6.00348 	 12.9646 	 88.4846 	 
C 	 5.98777 	 14.3849 	 88.2343 	 
C 	 4.66892 	 14.7918 	 87.898 	 
H 	 6.78483 	 12.336 	 88.9914 	 
C 	 7.14358 	 15.2789 	 88.7568 	 
H 	 7.13216 	 16.2911 	 88.295 	 
H 	 8.04388 	 14.7644 	 88.2922 	 
C 	 7.34098 	 15.5589 	 90.2647 	 
H 	 8.3178 	 15.9272 	 90.4761 	 
H 	 7.1733 	 14.5995 	 90.7342 	 
C 	 6.29164 	 16.5203 	 90.8339 	 
H 	 6.55919 	 17.5084 	 90.4163 	 
H 	 6.28629 	 16.6344 	 91.8829 	 
H 	 5.26394 	 16.2244 	 90.5917 	 
H 	 1.78738 	 18.5919 	 87.2375 	 
H 	 4.74666 	 11.291 	 88.4719 	 
