34

S 	 18.3909 	 -10.1015 	 77.0876 	 
C 	 19.1064 	 -11.6619 	 77.4662 	 
C 	 19.8756 	 -11.519 	 78.6207 	 
C 	 20.3428 	 -10.187 	 78.8046 	 
C 	 19.7829 	 -9.24839 	 77.9164 	 
H 	 21.0418 	 -9.82929 	 79.593 	 
C 	 20.2797 	 -12.6597 	 79.6101 	 
H 	 21.1522 	 -12.3113 	 80.08 	 
H 	 20.5213 	 -13.4837 	 78.8833 	 
C 	 19.3463 	 -12.9335 	 80.7595 	 
H 	 19.4702 	 -12.0569 	 81.3983 	 
H 	 18.275 	 -13.0268 	 80.4884 	 
C 	 19.695 	 -14.272 	 81.3762 	 
H 	 19.4504 	 -15.1355 	 80.7581 	 
H 	 20.8124 	 -14.2169 	 81.6285 	 
H 	 19.2686 	 -14.4082 	 82.3078 	 
S 	 18.5492 	 -6.73899 	 77.3828 	 
C 	 19.5132 	 -5.32701 	 77.4162 	 
C 	 20.8119 	 -5.65959 	 77.7308 	 
C 	 21.0913 	 -7.02215 	 78.0799 	 
C 	 19.9369 	 -7.81304 	 77.8187 	 
H 	 21.6213 	 -4.89272 	 77.7709 	 
C 	 22.4673 	 -7.53614 	 78.5861 	 
H 	 23.199 	 -7.13717 	 77.928 	 
H 	 22.6051 	 -8.65068 	 78.4513 	 
C 	 23.0742 	 -7.00596 	 79.9665 	 
H 	 22.1964 	 -7.01887 	 80.5274 	 
H 	 23.3563 	 -6.02836 	 80.0321 	 
C 	 24.1266 	 -7.90635 	 80.424 	 
H 	 23.8478 	 -8.92419 	 80.6036 	 
H 	 24.4992 	 -7.34488 	 81.258 	 
H 	 24.7921 	 -7.93466 	 79.6535 	 
H 	 18.7869 	 -12.5994 	 77.1375 	 
H 	 19.2357 	 -4.37929 	 76.9413 	 
