34

S 	 -4.38533 	 51.5648 	 48.7073 	 
C 	 -4.46965 	 52.2491 	 50.2937 	 
C 	 -5.77989 	 52.411 	 50.6857 	 
C 	 -6.75532 	 51.8401 	 49.7227 	 
C 	 -6.14511 	 51.2424 	 48.6302 	 
H 	 -7.82115 	 51.8954 	 49.8424 	 
C 	 -6.28201 	 53.1604 	 51.9302 	 
H 	 -5.37225 	 53.1999 	 52.4792 	 
H 	 -6.9102 	 52.5474 	 52.4665 	 
C 	 -6.87979 	 54.5692 	 51.6929 	 
H 	 -6.11707 	 55.1912 	 51.2038 	 
H 	 -7.77871 	 54.5432 	 51.1034 	 
C 	 -7.25738 	 55.2231 	 53.089 	 
H 	 -7.77227 	 56.0844 	 52.7896 	 
H 	 -7.84337 	 54.5657 	 53.6906 	 
H 	 -6.33764 	 55.4757 	 53.5778 	 
S 	 -6.33423 	 51.1897 	 45.8766 	 
C 	 -7.48401 	 50.0434 	 45.1903 	 
C 	 -8.08839 	 49.2992 	 46.1628 	 
C 	 -7.83348 	 49.7256 	 47.4885 	 
C 	 -6.87611 	 50.7144 	 47.5091 	 
H 	 -8.76384 	 48.5749 	 45.8407 	 
C 	 -8.58281 	 49.1453 	 48.6755 	 
H 	 -8.95486 	 49.9184 	 49.3442 	 
H 	 -7.83908 	 48.5364 	 49.1779 	 
C 	 -9.77367 	 48.135 	 48.376 	 
H 	 -9.92682 	 47.483 	 49.3124 	 
H 	 -9.46276 	 47.5106 	 47.5748 	 
C 	 -11.065 	 48.8854 	 47.9827 	 
H 	 -11.6594 	 48.2682 	 47.375 	 
H 	 -10.778 	 49.7908 	 47.3412 	 
H 	 -11.5596 	 49.3313 	 48.8165 	 
H 	 -3.70277 	 52.8486 	 50.7762 	 
H 	 -7.76131 	 49.836 	 44.1343 	 
