34

S 	 44.9115 	 5.12719 	 85.5919 	 
C 	 45.3988 	 4.40123 	 84.0339 	 
C 	 46.2439 	 3.32112 	 84.1622 	 
C 	 46.5638 	 3.03959 	 85.525 	 
C 	 45.7275 	 3.76797 	 86.3657 	 
H 	 47.3555 	 2.36722 	 85.9289 	 
C 	 46.8527 	 2.48427 	 83.0449 	 
H 	 47.9204 	 2.46469 	 83.0003 	 
H 	 46.5251 	 2.97196 	 82.0674 	 
C 	 46.5084 	 1.00713 	 82.9369 	 
H 	 46.843 	 0.467942 	 83.8406 	 
H 	 45.4515 	 0.839938 	 82.8116 	 
C 	 47.2103 	 0.366505 	 81.6754 	 
H 	 48.2588 	 -0.0366613 	 81.9866 	 
H 	 46.6524 	 -0.500922 	 81.2468 	 
H 	 47.3425 	 1.06256 	 80.8119 	 
S 	 45.9492 	 4.92353 	 88.825 	 
C 	 45.5022 	 3.98567 	 90.2742 	 
C 	 45.1539 	 2.70661 	 89.943 	 
C 	 45.0819 	 2.46213 	 88.5007 	 
C 	 45.5431 	 3.55352 	 87.7855 	 
H 	 44.8308 	 1.97363 	 90.7723 	 
C 	 44.6387 	 1.14318 	 87.7914 	 
H 	 44.3463 	 1.31393 	 86.8087 	 
H 	 43.7217 	 0.734524 	 88.2649 	 
C 	 45.6957 	 0.0828305 	 87.711 	 
H 	 45.9623 	 -0.282173 	 88.7034 	 
H 	 46.6246 	 0.703546 	 87.5212 	 
C 	 45.4633 	 -0.993292 	 86.6361 	 
H 	 44.8826 	 -1.85442 	 87.0356 	 
H 	 46.4154 	 -1.46936 	 86.3285 	 
H 	 44.9759 	 -0.655709 	 85.7269 	 
H 	 45.2582 	 4.84693 	 83.0872 	 
H 	 45.6154 	 4.32016 	 91.3079 	 
