34

S 	 -38.0455 	 12.1552 	 78.4729 	 
C 	 -37.207 	 11.9127 	 76.9427 	 
C 	 -37.4363 	 12.9035 	 76.0421 	 
C 	 -38.4023 	 13.7991 	 76.5578 	 
C 	 -38.9152 	 13.5425 	 77.8004 	 
H 	 -38.8234 	 14.6199 	 76.0916 	 
C 	 -36.8414 	 12.9347 	 74.6437 	 
H 	 -37.6514 	 12.8527 	 73.9605 	 
H 	 -36.2441 	 12.0599 	 74.5622 	 
C 	 -35.8954 	 14.1313 	 74.5402 	 
H 	 -35.1858 	 13.8936 	 75.2893 	 
H 	 -35.3759 	 14.1802 	 73.6073 	 
C 	 -36.4341 	 15.5653 	 74.7339 	 
H 	 -36.6391 	 15.8162 	 75.7676 	 
H 	 -35.7517 	 16.3079 	 74.4275 	 
H 	 -37.3502 	 15.6762 	 74.198 	 
S 	 -39.1734 	 14.9702 	 80.1688 	 
C 	 -40.7151 	 15.8725 	 80.4288 	 
C 	 -41.582 	 15.7192 	 79.3458 	 
C 	 -41.0347 	 14.9177 	 78.3144 	 
C 	 -39.7658 	 14.4388 	 78.5888 	 
H 	 -42.4216 	 16.3203 	 79.2385 	 
C 	 -41.7628 	 14.7046 	 76.9689 	 
H 	 -41.0762 	 14.645 	 76.1093 	 
H 	 -42.3867 	 15.5866 	 76.8119 	 
C 	 -42.6339 	 13.4687 	 76.7845 	 
H 	 -42.0836 	 12.5028 	 76.6594 	 
H 	 -43.0647 	 13.6327 	 75.7694 	 
C 	 -43.7521 	 13.1878 	 77.8494 	 
H 	 -44.2402 	 12.2609 	 77.6841 	 
H 	 -44.6017 	 13.9267 	 77.979 	 
H 	 -43.2552 	 13.0877 	 78.8713 	 
H 	 -36.6799 	 10.9885 	 76.7654 	 
H 	 -40.9645 	 16.4989 	 81.2591 	 
