34

S 	 -22.2666 	 -0.374315 	 78.3227 	 
C 	 -20.6033 	 -0.702741 	 78.0651 	 
C 	 -20.21 	 -0.244108 	 76.7873 	 
C 	 -21.3287 	 0.166563 	 75.9566 	 
C 	 -22.4804 	 0.154203 	 76.6705 	 
H 	 -21.3014 	 0.477375 	 74.9527 	 
C 	 -18.7103 	 -0.221471 	 76.3395 	 
H 	 -18.1503 	 -0.218495 	 77.1916 	 
H 	 -18.422 	 0.760014 	 75.9611 	 
C 	 -18.2571 	 -1.29819 	 75.3242 	 
H 	 -18.9029 	 -1.16336 	 74.4879 	 
H 	 -17.17 	 -1.23858 	 75.1047 	 
C 	 -18.5318 	 -2.69263 	 75.8177 	 
H 	 -19.5533 	 -2.96204 	 76.0482 	 
H 	 -18.0599 	 -3.45903 	 75.1806 	 
H 	 -18.0779 	 -2.73112 	 76.7936 	 
S 	 -24.6872 	 1.74252 	 76.7649 	 
C 	 -25.8844 	 1.73197 	 75.4957 	 
C 	 -25.5205 	 0.776002 	 74.5587 	 
C 	 -24.3748 	 0.0874313 	 74.9289 	 
C 	 -23.8041 	 0.437961 	 76.1758 	 
H 	 -26.0499 	 0.674775 	 73.6616 	 
C 	 -24.0132 	 -1.09127 	 74.0944 	 
H 	 -23.0871 	 -0.858446 	 73.5593 	 
H 	 -24.7898 	 -1.19477 	 73.3295 	 
C 	 -23.9294 	 -2.43487 	 74.7108 	 
H 	 -24.9303 	 -2.61756 	 75.0943 	 
H 	 -23.2722 	 -2.54986 	 75.5459 	 
C 	 -23.7047 	 -3.53512 	 73.6285 	 
H 	 -22.9152 	 -3.25231 	 73.0052 	 
H 	 -24.5312 	 -3.70576 	 72.9821 	 
H 	 -23.3705 	 -4.55339 	 74.0497 	 
H 	 -19.9732 	 -0.915052 	 78.7937 	 
H 	 -26.6184 	 2.47003 	 75.2753 	 
