34

S 	 -100.31 	 53.24 	 121.801 	 
C 	 -99.8687 	 53.404 	 120.102 	 
C 	 -100.831 	 53.9759 	 119.32 	 
C 	 -101.998 	 54.3053 	 120.111 	 
C 	 -101.947 	 53.9041 	 121.413 	 
H 	 -102.928 	 54.8476 	 119.763 	 
C 	 -100.754 	 54.2882 	 117.867 	 
H 	 -101.778 	 54.3368 	 117.517 	 
H 	 -100.287 	 53.4506 	 117.363 	 
C 	 -99.9613 	 55.4927 	 117.388 	 
H 	 -100.465 	 56.388 	 117.642 	 
H 	 -98.9806 	 55.4914 	 117.934 	 
C 	 -99.6236 	 55.6131 	 115.899 	 
H 	 -98.9231 	 56.4438 	 115.705 	 
H 	 -99.2634 	 54.6401 	 115.501 	 
H 	 -100.56 	 55.8254 	 115.417 	 
S 	 -102.394 	 54.7731 	 123.887 	 
C 	 -104.023 	 54.6154 	 124.575 	 
C 	 -104.893 	 53.8092 	 123.852 	 
C 	 -104.248 	 53.4274 	 122.59 	 
C 	 -102.904 	 53.8892 	 122.465 	 
H 	 -105.846 	 53.63 	 124.223 	 
C 	 -105.091 	 52.6085 	 121.552 	 
H 	 -105.404 	 51.7014 	 122.099 	 
H 	 -104.453 	 52.1706 	 120.846 	 
C 	 -106.339 	 53.3106 	 121.078 	 
H 	 -106.979 	 53.5968 	 121.986 	 
H 	 -107.004 	 52.6614 	 120.469 	 
C 	 -106.161 	 54.6158 	 120.24 	 
H 	 -107.136 	 55.0656 	 120.139 	 
H 	 -105.784 	 54.4341 	 119.266 	 
H 	 -105.553 	 55.2938 	 120.745 	 
H 	 -98.9371 	 53.0605 	 119.64 	 
H 	 -104.357 	 55.0388 	 125.478 	 
