34

S 	 39.4293 	 8.06584 	 88.7963 	 
C 	 40.4969 	 6.66832 	 89.1676 	 
C 	 40.1505 	 5.55569 	 88.4108 	 
C 	 39.1443 	 5.83329 	 87.4654 	 
C 	 38.5563 	 7.08566 	 87.6271 	 
H 	 38.7323 	 5.18618 	 86.7361 	 
C 	 40.7311 	 4.16285 	 88.6829 	 
H 	 41.797 	 4.23001 	 88.6225 	 
H 	 40.348 	 3.50399 	 87.8468 	 
C 	 40.3163 	 3.50176 	 90.0307 	 
H 	 40.5147 	 2.4682 	 90.13 	 
H 	 40.8111 	 4.16871 	 90.7419 	 
C 	 38.8323 	 3.61472 	 90.3813 	 
H 	 38.2009 	 2.91561 	 89.8964 	 
H 	 38.6647 	 3.33604 	 91.4207 	 
H 	 38.4328 	 4.65797 	 90.2764 	 
S 	 36.3115 	 8.59837 	 87.9913 	 
C 	 35.416 	 9.03592 	 86.541 	 
C 	 35.8861 	 8.46717 	 85.3998 	 
C 	 37.1032 	 7.71648 	 85.5825 	 
C 	 37.4474 	 7.67445 	 86.888 	 
H 	 35.396 	 8.71662 	 84.4872 	 
C 	 37.855 	 7.07924 	 84.4623 	 
H 	 37.2453 	 7.07753 	 83.5759 	 
H 	 37.9467 	 6.01934 	 84.4916 	 
C 	 39.092 	 7.80457 	 83.8685 	 
H 	 39.0382 	 8.89403 	 83.927 	 
H 	 39.1453 	 7.46903 	 82.7634 	 
C 	 40.3676 	 7.50796 	 84.677 	 
H 	 40.3956 	 6.42325 	 84.8514 	 
H 	 40.4512 	 7.96964 	 85.6919 	 
H 	 41.2685 	 7.84437 	 84.1196 	 
H 	 41.2726 	 6.60204 	 89.8475 	 
H 	 34.5936 	 9.62771 	 86.5249 	 
