34

S 	 16.8643 	 -7.59746 	 82.5237 	 
C 	 16.2449 	 -7.02431 	 80.9158 	 
C 	 16.5411 	 -7.94316 	 79.9172 	 
C 	 17.1129 	 -9.16163 	 80.4819 	 
C 	 17.2151 	 -9.17776 	 81.89 	 
H 	 17.3201 	 -10.0325 	 79.9724 	 
C 	 16.4291 	 -7.86495 	 78.4067 	 
H 	 17.3242 	 -8.24029 	 77.9213 	 
H 	 16.4069 	 -6.79847 	 78.0671 	 
C 	 15.3695 	 -8.78845 	 77.7752 	 
H 	 15.4681 	 -9.80262 	 78.1742 	 
H 	 14.4783 	 -8.50026 	 78.2307 	 
C 	 15.167 	 -8.50087 	 76.2906 	 
H 	 14.4927 	 -9.13654 	 75.8539 	 
H 	 14.7222 	 -7.5234 	 76.0602 	 
H 	 16.069 	 -8.55494 	 75.694 	 
S 	 18.914 	 -10.1742 	 83.9829 	 
C 	 19.0963 	 -11.8694 	 84.0377 	 
C 	 18.35 	 -12.5497 	 83.1592 	 
C 	 17.6055 	 -11.6862 	 82.3001 	 
C 	 17.7727 	 -10.3149 	 82.6129 	 
H 	 18.3532 	 -13.5933 	 83.0987 	 
C 	 16.7445 	 -12.3296 	 81.1339 	 
H 	 16.101 	 -11.5238 	 80.7341 	 
H 	 16.0056 	 -13.0116 	 81.588 	 
C 	 17.4784 	 -13.1753 	 80.0519 	 
H 	 17.9413 	 -14.0103 	 80.5467 	 
H 	 18.282 	 -12.6069 	 79.616 	 
C 	 16.5388 	 -13.5523 	 78.8755 	 
H 	 16.4007 	 -12.8478 	 78.0238 	 
H 	 15.5576 	 -13.8238 	 79.2654 	 
H 	 16.9945 	 -14.2761 	 78.191 	 
H 	 15.896 	 -5.97642 	 80.9042 	 
H 	 19.7364 	 -12.2976 	 84.7315 	 
