34

S 	 41.6706 	 28.456 	 86.0236 	 
C 	 40.9267 	 29.7585 	 86.9326 	 
C 	 39.555 	 29.6198 	 86.9761 	 
C 	 39.1496 	 28.5702 	 86.0652 	 
C 	 40.1761 	 27.7935 	 85.5591 	 
H 	 38.1559 	 28.2209 	 85.9159 	 
C 	 38.6295 	 30.5416 	 87.6643 	 
H 	 38.5932 	 30.1758 	 88.6567 	 
H 	 37.6452 	 30.371 	 87.1963 	 
C 	 39.0582 	 32.0292 	 87.6142 	 
H 	 39.9783 	 32.0956 	 88.2272 	 
H 	 39.1007 	 32.268 	 86.577 	 
C 	 37.9146 	 32.8277 	 88.2505 	 
H 	 38.1431 	 33.8186 	 88.4342 	 
H 	 37.0052 	 32.817 	 87.6407 	 
H 	 37.6735 	 32.3822 	 89.2206 	 
S 	 38.8746 	 26.8621 	 83.4759 	 
C 	 39.0234 	 25.2129 	 82.8965 	 
C 	 40.1557 	 24.6469 	 83.4187 	 
C 	 40.68 	 25.394 	 84.4701 	 
C 	 40.0412 	 26.6214 	 84.6719 	 
H 	 40.4566 	 23.6967 	 83.0049 	 
C 	 41.871 	 24.9844 	 85.2708 	 
H 	 42.1628 	 25.6742 	 86.0438 	 
H 	 42.7529 	 24.8693 	 84.6302 	 
C 	 41.6391 	 23.7039 	 86.0764 	 
H 	 41.2519 	 22.8174 	 85.5187 	 
H 	 40.8237 	 23.9052 	 86.8263 	 
C 	 42.8744 	 23.2674 	 86.8265 	 
H 	 42.7394 	 22.3091 	 87.3742 	 
H 	 43.2338 	 23.9762 	 87.5835 	 
H 	 43.7665 	 23.0442 	 86.2728 	 
H 	 41.5508 	 30.5259 	 87.412 	 
H 	 38.4154 	 24.7343 	 82.1368 	 
