34

S 	 5.94904 	 -11.948 	 55.1024 	 
C 	 4.22932 	 -11.8804 	 55.4977 	 
C 	 3.73736 	 -12.9945 	 56.1143 	 
C 	 4.85238 	 -13.9077 	 56.3079 	 
C 	 6.09466 	 -13.4925 	 55.8715 	 
H 	 4.72397 	 -14.883 	 56.7242 	 
C 	 2.32457 	 -13.1916 	 56.5274 	 
H 	 1.93114 	 -13.8584 	 55.7891 	 
H 	 1.88002 	 -12.2488 	 56.4754 	 
C 	 2.09609 	 -13.8861 	 57.8752 	 
H 	 1.03319 	 -13.8885 	 58.1001 	 
H 	 2.36764 	 -14.9584 	 57.726 	 
C 	 2.8862 	 -13.3176 	 59.0177 	 
H 	 3.90522 	 -13.2323 	 58.6949 	 
H 	 2.53942 	 -12.3128 	 59.2875 	 
H 	 2.85113 	 -13.8012 	 60.0057 	 
S 	 8.50978 	 -14.0201 	 54.6489 	 
C 	 9.62722 	 -14.9632 	 55.5014 	 
C 	 9.30624 	 -15.2446 	 56.8361 	 
C 	 7.92441 	 -14.802 	 57.0812 	 
C 	 7.38089 	 -14.1865 	 55.9909 	 
H 	 10.089 	 -15.7711 	 57.4288 	 
C 	 7.23413 	 -14.9317 	 58.4316 	 
H 	 7.57886 	 -15.8499 	 58.8598 	 
H 	 6.18727 	 -15.0887 	 58.304 	 
C 	 7.463 	 -13.7365 	 59.3396 	 
H 	 7.12151 	 -12.8785 	 58.7529 	 
H 	 8.51488 	 -13.5418 	 59.3124 	 
C 	 6.82082 	 -13.7806 	 60.7739 	 
H 	 6.92773 	 -12.8837 	 61.3268 	 
H 	 7.23736 	 -14.47 	 61.4257 	 
H 	 5.72732 	 -13.987 	 60.6824 	 
H 	 3.58819 	 -11.0281 	 55.4247 	 
H 	 10.6662 	 -15.1252 	 55.1301 	 
