34

S 	 9.58381 	 22.5762 	 40.2706 	 
C 	 8.67095 	 23.8825 	 39.5686 	 
C 	 7.40901 	 23.5011 	 39.1952 	 
C 	 7.17555 	 22.0632 	 39.433 	 
C 	 8.37191 	 21.4538 	 39.7954 	 
H 	 6.23425 	 21.4121 	 39.2572 	 
C 	 6.3415 	 24.4964 	 38.7488 	 
H 	 6.73702 	 25.0272 	 37.9201 	 
H 	 6.32096 	 25.2259 	 39.5495 	 
C 	 4.91228 	 23.8712 	 38.4029 	 
H 	 4.30686 	 24.7084 	 38.0175 	 
H 	 4.91999 	 23.0831 	 37.5704 	 
C 	 4.09913 	 23.3421 	 39.5931 	 
H 	 3.12336 	 22.8995 	 39.2704 	 
H 	 4.62929 	 22.5794 	 40.24 	 
H 	 3.8195 	 24.1472 	 40.1948 	 
S 	 10.2893 	 19.5829 	 40.2427 	 
C 	 9.81686 	 17.8383 	 40.4228 	 
C 	 8.50439 	 17.7669 	 40.8085 	 
C 	 7.7996 	 18.9783 	 40.6143 	 
C 	 8.62876 	 20.0229 	 40.1732 	 
H 	 8.04189 	 16.8709 	 41.1471 	 
C 	 6.24572 	 19.1335 	 40.8616 	 
H 	 5.81531 	 20.0922 	 40.7045 	 
H 	 6.13051 	 19.0877 	 41.9033 	 
C 	 5.44167 	 18.0504 	 40.0938 	 
H 	 5.57387 	 17.0557 	 40.3755 	 
H 	 5.83845 	 18.0252 	 39.0717 	 
C 	 3.97822 	 18.4353 	 40.0153 	 
H 	 3.62724 	 17.9561 	 39.1333 	 
H 	 3.69516 	 19.5256 	 39.9276 	 
H 	 3.49751 	 17.9685 	 40.8297 	 
H 	 9.08411 	 24.9039 	 39.3272 	 
H 	 10.5433 	 17.1191 	 40.6632 	 
