34

S 	 42.4759 	 9.65941 	 79.4178 	 
C 	 42.6926 	 8.13624 	 80.286 	 
C 	 43.5782 	 8.24852 	 81.3223 	 
C 	 44.022 	 9.61546 	 81.5126 	 
C 	 43.4656 	 10.5537 	 80.6032 	 
H 	 44.6726 	 9.84425 	 82.3476 	 
C 	 43.9375 	 7.10278 	 82.2749 	 
H 	 44.8991 	 7.40471 	 82.7873 	 
H 	 44.1126 	 6.15179 	 81.6868 	 
C 	 42.9431 	 6.69228 	 83.3307 	 
H 	 42.0255 	 6.55216 	 82.7879 	 
H 	 43.1697 	 5.68456 	 83.6381 	 
C 	 42.6318 	 7.77164 	 84.4026 	 
H 	 42.3214 	 8.7452 	 83.9606 	 
H 	 41.7782 	 7.35828 	 84.9066 	 
H 	 43.389 	 8.07399 	 85.1896 	 
S 	 44.903 	 12.6725 	 79.4233 	 
C 	 44.2022 	 14.2291 	 79.5846 	 
C 	 43.2644 	 14.3151 	 80.5585 	 
C 	 42.8076 	 13.0336 	 80.9956 	 
C 	 43.6466 	 12.0255 	 80.4952 	 
H 	 42.8475 	 15.2569 	 80.8308 	 
C 	 41.6274 	 12.8097 	 81.805 	 
H 	 40.8594 	 12.2404 	 81.1981 	 
H 	 41.1285 	 13.8131 	 81.8962 	 
C 	 41.828 	 12.2124 	 83.1725 	 
H 	 41.9444 	 11.1125 	 83.1428 	 
H 	 40.9359 	 12.281 	 83.8568 	 
C 	 42.9361 	 12.8459 	 84.032 	 
H 	 43.8581 	 12.4165 	 83.716 	 
H 	 42.8072 	 12.5677 	 85.0736 	 
H 	 42.9441 	 13.9221 	 84.1047 	 
H 	 42.3543 	 7.13404 	 79.8705 	 
H 	 44.5191 	 15.0881 	 78.9866 	 
