34

S 	 -12.7174 	 59.9475 	 51.8769 	 
C 	 -12.5103 	 61.204 	 50.615 	 
C 	 -12.0419 	 62.3587 	 51.204 	 
C 	 -12.0798 	 62.3662 	 52.6092 	 
C 	 -12.4159 	 61.1125 	 53.1228 	 
H 	 -11.8714 	 63.1714 	 53.2811 	 
C 	 -11.7054 	 63.6396 	 50.3935 	 
H 	 -12.3986 	 64.4522 	 50.6208 	 
H 	 -11.7385 	 63.5631 	 49.2913 	 
C 	 -10.3261 	 64.2057 	 50.7852 	 
H 	 -10.0456 	 64.9143 	 50.0335 	 
H 	 -10.4397 	 64.8209 	 51.691 	 
C 	 -9.16414 	 63.177 	 50.8649 	 
H 	 -8.25399 	 63.5324 	 50.6905 	 
H 	 -9.15411 	 62.8105 	 51.8703 	 
H 	 -9.33176 	 62.2784 	 50.3073 	 
S 	 -12.3196 	 59.0374 	 54.9679 	 
C 	 -12.7056 	 59.2729 	 56.5831 	 
C 	 -13.0735 	 60.6277 	 56.8248 	 
C 	 -13.0767 	 61.4123 	 55.6192 	 
C 	 -12.6059 	 60.7075 	 54.5115 	 
H 	 -13.3333 	 60.8082 	 57.8373 	 
C 	 -13.415 	 62.8416 	 55.6259 	 
H 	 -14.4486 	 62.8928 	 55.9316 	 
H 	 -13.4943 	 63.2583 	 54.6144 	 
C 	 -12.4936 	 63.7607 	 56.4502 	 
H 	 -12.6241 	 63.458 	 57.5596 	 
H 	 -12.8792 	 64.7784 	 56.2822 	 
C 	 -10.9024 	 63.7461 	 56.0932 	 
H 	 -10.3561 	 64.4551 	 56.7149 	 
H 	 -10.6601 	 64.0696 	 55.0759 	 
H 	 -10.4484 	 62.7237 	 56.2328 	 
H 	 -12.4273 	 60.9643 	 49.5807 	 
H 	 -12.5457 	 58.5591 	 57.3869 	 
