34

S 	 10.17 	 -7.51578 	 63.2436 	 
C 	 8.56495 	 -7.10287 	 63.8353 	 
C 	 8.11062 	 -8.11334 	 64.7105 	 
C 	 9.09049 	 -9.16368 	 64.9558 	 
C 	 10.1906 	 -9.04258 	 64.1257 	 
H 	 9.05259 	 -9.9787 	 65.7034 	 
C 	 6.76689 	 -8.01939 	 65.4435 	 
H 	 6.43195 	 -9.04075 	 65.4996 	 
H 	 6.04254 	 -7.50208 	 64.852 	 
C 	 6.87931 	 -7.42752 	 66.8699 	 
H 	 7.6006 	 -8.04649 	 67.3783 	 
H 	 7.33349 	 -6.42306 	 66.9269 	 
C 	 5.55961 	 -7.37426 	 67.6438 	 
H 	 5.54274 	 -6.71667 	 68.4941 	 
H 	 4.80288 	 -7.15322 	 66.8813 	 
H 	 5.23026 	 -8.31788 	 68.1283 	 
S 	 12.9516 	 -9.02403 	 64.1925 	 
C 	 13.8713 	 -10.5314 	 64.243 	 
C 	 12.9396 	 -11.6372 	 64.1763 	 
C 	 11.5408 	 -11.2342 	 64.0123 	 
C 	 11.3876 	 -9.84184 	 64.0982 	 
H 	 13.3281 	 -12.6806 	 64.1334 	 
C 	 10.3885 	 -12.1456 	 63.8953 	 
H 	 9.50837 	 -11.6489 	 64.2208 	 
H 	 10.4832 	 -13.0804 	 64.4436 	 
C 	 10.1156 	 -12.5842 	 62.4149 	 
H 	 11.0081 	 -13.0953 	 61.968 	 
H 	 9.97107 	 -11.6089 	 61.919 	 
C 	 8.86867 	 -13.4662 	 62.3531 	 
H 	 8.81589 	 -13.9886 	 61.4128 	 
H 	 7.91186 	 -12.9831 	 62.5868 	 
H 	 8.84818 	 -14.2322 	 63.1529 	 
H 	 8.14266 	 -6.12999 	 63.5088 	 
H 	 14.9726 	 -10.6326 	 64.3626 	 
