34

S 	 -57.8642 	 54.4707 	 134.931 	 
C 	 -56.252 	 54.9282 	 134.294 	 
C 	 -55.4162 	 53.8417 	 134.241 	 
C 	 -56.0376 	 52.7043 	 134.854 	 
C 	 -57.1721 	 52.949 	 135.479 	 
H 	 -55.6823 	 51.6413 	 134.925 	 
C 	 -54.0773 	 53.7818 	 133.538 	 
H 	 -54.0213 	 52.9918 	 132.824 	 
H 	 -53.516 	 53.4376 	 134.355 	 
C 	 -53.4819 	 55.1349 	 132.983 	 
H 	 -53.5137 	 55.7948 	 133.852 	 
H 	 -52.4782 	 55.0927 	 132.602 	 
C 	 -54.2135 	 55.6253 	 131.76 	 
H 	 -55.3227 	 55.4935 	 131.826 	 
H 	 -53.8925 	 56.6923 	 131.492 	 
H 	 -53.9517 	 54.9596 	 130.938 	 
S 	 -59.6581 	 51.8147 	 135.538 	 
C 	 -59.9682 	 50.457 	 136.581 	 
C 	 -59.0065 	 50.2625 	 137.501 	 
C 	 -57.8182 	 51.0813 	 137.232 	 
C 	 -58.0081 	 52.0005 	 136.146 	 
H 	 -59.0869 	 49.5142 	 138.263 	 
C 	 -56.5443 	 50.971 	 138.073 	 
H 	 -55.786 	 51.4766 	 137.444 	 
H 	 -56.171 	 49.9735 	 138.23 	 
C 	 -56.608 	 51.718 	 139.376 	 
H 	 -57.5284 	 51.5844 	 139.938 	 
H 	 -56.4267 	 52.7216 	 139.122 	 
C 	 -55.434 	 51.3063 	 140.3 	 
H 	 -54.5941 	 51.8635 	 139.793 	 
H 	 -55.1717 	 50.2192 	 140.174 	 
H 	 -55.5479 	 51.6009 	 141.413 	 
H 	 -55.9608 	 55.9693 	 134.024 	 
H 	 -60.9582 	 50.0474 	 136.612 	 
