34

S 	 11.2503 	 -12.2032 	 80.8806 	 
C 	 11.7779 	 -13.768 	 81.5057 	 
C 	 11.3139 	 -14.7443 	 80.6014 	 
C 	 10.8074 	 -14.2609 	 79.3585 	 
C 	 10.7106 	 -12.8725 	 79.3648 	 
H 	 10.3656 	 -14.7943 	 78.5679 	 
C 	 11.3601 	 -16.2113 	 80.8673 	 
H 	 12.0869 	 -16.221 	 81.6883 	 
H 	 11.8363 	 -16.6747 	 79.992 	 
C 	 10.0955 	 -16.9529 	 81.33 	 
H 	 9.78473 	 -16.6429 	 82.2813 	 
H 	 9.24929 	 -16.8728 	 80.6078 	 
C 	 10.3286 	 -18.4671 	 81.4561 	 
H 	 11.0954 	 -18.7149 	 82.1302 	 
H 	 9.44058 	 -18.8999 	 81.8907 	 
H 	 10.6427 	 -19.0569 	 80.5288 	 
S 	 10.8073 	 -11.9073 	 76.9051 	 
C 	 9.50261 	 -11.1 	 76.1905 	 
C 	 8.39246 	 -11.1224 	 77.0601 	 
C 	 8.65228 	 -11.6302 	 78.3487 	 
C 	 9.93303 	 -12.154 	 78.4012 	 
H 	 7.51775 	 -10.6363 	 76.7565 	 
C 	 7.53725 	 -11.7231 	 79.4098 	 
H 	 7.66421 	 -12.6393 	 79.8592 	 
H 	 6.59504 	 -11.6239 	 78.9022 	 
C 	 7.58408 	 -10.5569 	 80.5779 	 
H 	 7.43839 	 -9.51669 	 80.1668 	 
H 	 8.62457 	 -10.5854 	 80.932 	 
C 	 6.56664 	 -10.727 	 81.7253 	 
H 	 5.5032 	 -10.75 	 81.4618 	 
H 	 6.50419 	 -9.85995 	 82.4345 	 
H 	 6.6 	 -11.7278 	 82.3174 	 
H 	 12.1749 	 -13.8831 	 82.4644 	 
H 	 9.51336 	 -10.6949 	 75.194 	 
