34

S 	 -77.0786 	 51.9449 	 140.068 	 
C 	 -76.2821 	 51.1502 	 141.352 	 
C 	 -75.0665 	 50.5949 	 140.908 	 
C 	 -74.9623 	 50.7288 	 139.478 	 
C 	 -76.063 	 51.402 	 138.868 	 
H 	 -74.2035 	 50.3009 	 138.844 	 
C 	 -73.9524 	 50.0793 	 141.774 	 
H 	 -74.0965 	 50.3556 	 142.796 	 
H 	 -73.0721 	 50.6455 	 141.565 	 
C 	 -73.7078 	 48.5886 	 141.629 	 
H 	 -73.3474 	 48.2481 	 140.635 	 
H 	 -72.9268 	 48.2525 	 142.362 	 
C 	 -74.9773 	 47.764 	 141.92 	 
H 	 -74.7104 	 46.7604 	 141.778 	 
H 	 -75.1126 	 47.7658 	 142.942 	 
H 	 -75.8965 	 47.9539 	 141.304 	 
S 	 -77.1604 	 50.5454 	 136.511 	 
C 	 -76.5633 	 51.1649 	 134.964 	 
C 	 -75.8873 	 52.2828 	 135.191 	 
C 	 -75.6856 	 52.6612 	 136.557 	 
C 	 -76.2008 	 51.6523 	 137.39 	 
H 	 -75.4802 	 52.7586 	 134.274 	 
C 	 -74.8578 	 53.9235 	 136.886 	 
H 	 -74.2332 	 54.2247 	 136.036 	 
H 	 -74.2664 	 53.7768 	 137.758 	 
C 	 -75.7419 	 55.1251 	 137.195 	 
H 	 -76.43 	 54.8905 	 138.053 	 
H 	 -76.2609 	 55.4019 	 136.268 	 
C 	 -74.887 	 56.2748 	 137.692 	 
H 	 -75.433 	 57.182 	 138.02 	 
H 	 -74.2106 	 56.5431 	 136.874 	 
H 	 -74.2947 	 55.9144 	 138.552 	 
H 	 -76.5044 	 51.2547 	 142.377 	 
H 	 -76.8076 	 50.871 	 134.023 	 
