34

S 	 3.17604 	 -2.75843 	 75.1559 	 
C 	 2.55883 	 -3.92319 	 76.2113 	 
C 	 2.06331 	 -3.384 	 77.3994 	 
C 	 2.23962 	 -1.96085 	 77.4291 	 
C 	 2.96123 	 -1.51629 	 76.3434 	 
H 	 1.9971 	 -1.24792 	 78.2355 	 
C 	 1.51862 	 -4.12814 	 78.5594 	 
H 	 2.38932 	 -4.18539 	 79.2658 	 
H 	 1.23103 	 -5.11343 	 78.2848 	 
C 	 0.202547 	 -3.49449 	 79.1647 	 
H 	 -0.198416 	 -4.13593 	 79.9554 	 
H 	 0.533612 	 -2.57239 	 79.692 	 
C 	 -1.02963 	 -3.31414 	 78.263 	 
H 	 -0.79983 	 -2.92676 	 77.2384 	 
H 	 -1.52288 	 -4.26626 	 78.1943 	 
H 	 -1.70935 	 -2.52686 	 78.66 	 
S 	 5.57686 	 -0.417669 	 75.9876 	 
C 	 5.65984 	 1.33562 	 76.0259 	 
C 	 4.42649 	 1.92776 	 76.1833 	 
C 	 3.31008 	 1.00551 	 76.2839 	 
C 	 3.77733 	 -0.306291 	 76.2151 	 
H 	 4.38994 	 3.01033 	 76.2054 	 
C 	 1.91888 	 1.51692 	 76.6764 	 
H 	 2.065 	 2.55121 	 76.8584 	 
H 	 1.64749 	 1.24288 	 77.671 	 
C 	 0.692422 	 1.15311 	 75.7485 	 
H 	 -0.290477 	 1.51805 	 76.0104 	 
H 	 0.54646 	 0.128201 	 75.7739 	 
C 	 0.952813 	 1.40645 	 74.268 	 
H 	 1.97016 	 0.930767 	 74.0547 	 
H 	 1.23862 	 2.4797 	 74.034 	 
H 	 0.24828 	 1.05084 	 73.4979 	 
H 	 2.49959 	 -4.95313 	 75.969 	 
H 	 6.61985 	 1.96413 	 76.0412 	 
