34

S 	 -22.7918 	 31.8481 	 43.3981 	 
C 	 -21.6692 	 30.9369 	 44.2712 	 
C 	 -20.4933 	 30.8027 	 43.5973 	 
C 	 -20.6316 	 31.059 	 42.2514 	 
C 	 -21.9598 	 31.4005 	 41.8747 	 
H 	 -19.9419 	 30.8908 	 41.4823 	 
C 	 -19.2078 	 30.1957 	 44.007 	 
H 	 -18.5717 	 30.0837 	 43.1119 	 
H 	 -19.4725 	 29.1903 	 44.2765 	 
C 	 -18.376 	 30.9665 	 45.081 	 
H 	 -18.2573 	 32.0087 	 44.7292 	 
H 	 -18.9675 	 30.8341 	 46.0214 	 
C 	 -17.0072 	 30.3406 	 45.3352 	 
H 	 -16.3142 	 30.4315 	 44.5373 	 
H 	 -16.5724 	 30.6784 	 46.297 	 
H 	 -17.0309 	 29.2907 	 45.4865 	 
S 	 -23.8394 	 32.8111 	 40.4285 	 
C 	 -23.9238 	 32.673 	 38.7371 	 
C 	 -23.0774 	 31.6597 	 38.2825 	 
C 	 -22.3173 	 31.0217 	 39.3195 	 
C 	 -22.5714 	 31.5827 	 40.5726 	 
H 	 -23.0136 	 31.4365 	 37.2111 	 
C 	 -21.2922 	 29.9001 	 38.9563 	 
H 	 -21.9135 	 29.1939 	 38.3835 	 
H 	 -20.9758 	 29.4239 	 39.8648 	 
C 	 -20.0996 	 30.2955 	 38.0246 	 
H 	 -19.6253 	 31.1783 	 38.55 	 
H 	 -20.4434 	 30.5932 	 37.003 	 
C 	 -19.0807 	 29.0805 	 37.9565 	 
H 	 -18.2764 	 29.2668 	 37.2574 	 
H 	 -19.7309 	 28.2895 	 37.6346 	 
H 	 -18.7713 	 28.7848 	 38.9546 	 
H 	 -21.7881 	 30.7664 	 45.3677 	 
H 	 -24.7051 	 33.108 	 38.1089 	 
