34

S 	 52.2626 	 -3.24086 	 87.2748 	 
C 	 52.1289 	 -3.69798 	 88.9253 	 
C 	 51.9091 	 -2.56917 	 89.7568 	 
C 	 51.6605 	 -1.38125 	 88.9749 	 
C 	 51.9171 	 -1.52988 	 87.6471 	 
H 	 51.2907 	 -0.430327 	 89.2584 	 
C 	 51.7962 	 -2.62312 	 91.2631 	 
H 	 51.4224 	 -3.63782 	 91.5462 	 
H 	 51.0717 	 -1.89746 	 91.6424 	 
C 	 53.0599 	 -2.40792 	 92.0823 	 
H 	 53.8559 	 -3.05996 	 91.6654 	 
H 	 53.4267 	 -1.39222 	 92.0951 	 
C 	 52.7582 	 -2.83712 	 93.588 	 
H 	 51.9214 	 -2.24906 	 93.9706 	 
H 	 52.3811 	 -3.86129 	 93.6655 	 
H 	 53.65 	 -2.68064 	 94.216 	 
S 	 50.1068 	 -1.19963 	 85.5493 	 
C 	 50.4689 	 0.194964 	 84.495 	 
C 	 51.3146 	 1.11548 	 85.0864 	 
C 	 51.8034 	 0.65246 	 86.315 	 
C 	 51.4505 	 -0.679014 	 86.5919 	 
H 	 51.6006 	 1.98901 	 84.6563 	 
C 	 52.7031 	 1.53701 	 87.1149 	 
H 	 52.2378 	 1.67244 	 88.1255 	 
H 	 52.625 	 2.56259 	 86.7271 	 
C 	 54.1421 	 1.23195 	 87.1543 	 
H 	 54.5574 	 0.955114 	 86.2022 	 
H 	 54.3828 	 0.313405 	 87.7552 	 
C 	 54.9946 	 2.44178 	 87.5725 	 
H 	 54.8772 	 2.6231 	 88.6508 	 
H 	 54.738 	 3.36271 	 87.0697 	 
H 	 56.017 	 2.01814 	 87.3685 	 
H 	 52.3339 	 -4.66906 	 89.3541 	 
H 	 49.905 	 0.404952 	 83.6407 	 
