34

S 	 -58.9524 	 35.1122 	 91.6521 	 
C 	 -59.0192 	 33.4089 	 91.1848 	 
C 	 -57.938 	 32.7424 	 91.7793 	 
C 	 -56.9417 	 33.6532 	 92.2431 	 
C 	 -57.2624 	 34.9756 	 92.0323 	 
H 	 -56.0031 	 33.3423 	 92.6934 	 
C 	 -57.6977 	 31.2509 	 91.94 	 
H 	 -58.4598 	 30.8604 	 91.3384 	 
H 	 -58.0771 	 31.0079 	 92.8908 	 
C 	 -56.3234 	 30.7069 	 91.6181 	 
H 	 -55.6361 	 31.0371 	 92.3455 	 
H 	 -56.4093 	 29.6523 	 91.6133 	 
C 	 -55.8475 	 31.0487 	 90.2305 	 
H 	 -56.5748 	 31.0889 	 89.4781 	 
H 	 -55.3664 	 32.0679 	 90.3447 	 
H 	 -55.1455 	 30.2624 	 89.8485 	 
S 	 -57.2372 	 37.2223 	 93.5962 	 
C 	 -55.8639 	 38.1487 	 93.5376 	 
C 	 -54.8061 	 37.54 	 92.9307 	 
C 	 -55.1871 	 36.2954 	 92.3926 	 
C 	 -56.5416 	 36.0515 	 92.539 	 
H 	 -53.8096 	 37.9237 	 92.9988 	 
C 	 -54.2005 	 35.3996 	 91.6305 	 
H 	 -53.4608 	 36.0996 	 91.2343 	 
H 	 -54.672 	 34.7567 	 90.81 	 
C 	 -53.496 	 34.5202 	 92.576 	 
H 	 -52.8908 	 33.7874 	 92.0833 	 
H 	 -54.1766 	 33.9416 	 93.2349 	 
C 	 -52.594 	 35.2408 	 93.5107 	 
H 	 -52.1849 	 34.4279 	 94.1176 	 
H 	 -53.1577 	 35.8334 	 94.2197 	 
H 	 -51.8237 	 35.8846 	 93.0582 	 
H 	 -59.9005 	 32.9067 	 90.7739 	 
H 	 -55.721 	 39.0396 	 94.1196 	 
