34

S 	 69.3174 	 16.4895 	 73.2743 	 
C 	 70.6625 	 17.489 	 72.9124 	 
C 	 70.6484 	 18.6639 	 73.6179 	 
C 	 69.5111 	 18.7321 	 74.4439 	 
C 	 68.7784 	 17.6 	 74.548 	 
H 	 69.2845 	 19.6314 	 75.0063 	 
C 	 71.6268 	 19.8588 	 73.5708 	 
H 	 72.5264 	 19.4767 	 74.1586 	 
H 	 71.2568 	 20.7613 	 74.1442 	 
C 	 72.3037 	 20.2886 	 72.2439 	 
H 	 71.5903 	 20.6395 	 71.49 	 
H 	 72.8582 	 21.1815 	 72.5911 	 
C 	 73.2026 	 19.3578 	 71.3901 	 
H 	 73.8886 	 18.8044 	 72.0878 	 
H 	 72.5732 	 18.5921 	 70.947 	 
H 	 73.6699 	 19.9175 	 70.6031 	 
S 	 65.953 	 17.5283 	 74.7213 	 
C 	 65.2838 	 17.5645 	 76.3137 	 
C 	 66.255 	 17.6119 	 77.2634 	 
C 	 67.5354 	 17.4112 	 76.7471 	 
C 	 67.5728 	 17.445 	 75.3776 	 
H 	 66.0701 	 17.6386 	 78.322 	 
C 	 68.751 	 17.2805 	 77.5745 	 
H 	 68.7382 	 18.2289 	 78.11 	 
H 	 69.7153 	 17.144 	 76.9453 	 
C 	 68.7512 	 16.1185 	 78.6314 	 
H 	 68.446 	 15.3049 	 78.03 	 
H 	 67.9359 	 16.2633 	 79.3351 	 
C 	 70.115 	 15.9507 	 79.3659 	 
H 	 70.4939 	 16.8312 	 79.816 	 
H 	 70.9167 	 15.5685 	 78.6798 	 
H 	 70.0442 	 15.1412 	 80.0812 	 
H 	 71.2515 	 17.3614 	 71.9536 	 
H 	 64.2336 	 17.4628 	 76.6367 	 
