34

S 	 -96.8727 	 49.4691 	 126.139 	 
C 	 -95.4983 	 48.4173 	 126.092 	 
C 	 -95.5467 	 47.4231 	 125.135 	 
C 	 -96.8586 	 47.4642 	 124.484 	 
C 	 -97.6995 	 48.3768 	 124.999 	 
H 	 -97.1031 	 46.7463 	 123.744 	 
C 	 -94.5158 	 46.3161 	 124.977 	 
H 	 -95.0707 	 45.4557 	 124.597 	 
H 	 -94.1194 	 46.1156 	 125.98 	 
C 	 -93.3086 	 46.6105 	 124.089 	 
H 	 -92.6872 	 47.4072 	 124.582 	 
H 	 -92.8503 	 45.6062 	 123.987 	 
C 	 -93.5814 	 47.2586 	 122.707 	 
H 	 -94.2022 	 48.1666 	 122.799 	 
H 	 -92.6726 	 47.3695 	 122.125 	 
H 	 -94.143 	 46.5474 	 122.138 	 
S 	 -100.117 	 48.3304 	 126.28 	 
C 	 -101.507 	 48.9876 	 125.429 	 
C 	 -101.16 	 49.089 	 124.076 	 
C 	 -99.8039 	 48.8607 	 123.703 	 
C 	 -99.1007 	 48.6222 	 124.888 	 
H 	 -101.99 	 49.3742 	 123.464 	 
C 	 -99.1704 	 49.0604 	 122.312 	 
H 	 -98.8506 	 48.0678 	 122 	 
H 	 -98.2378 	 49.5982 	 122.394 	 
C 	 -100.095 	 49.776 	 121.306 	 
H 	 -100.409 	 50.7493 	 121.595 	 
H 	 -101.047 	 49.3119 	 121.32 	 
C 	 -99.381 	 49.8406 	 119.922 	 
H 	 -99.9067 	 49.3017 	 119.104 	 
H 	 -98.4267 	 49.3539 	 119.843 	 
H 	 -99.2691 	 50.9219 	 119.732 	 
H 	 -94.6261 	 48.6344 	 126.706 	 
H 	 -102.416 	 49.3351 	 125.871 	 
