34

S 	 -16.6429 	 36.6002 	 36.3616 	 
C 	 -16.3422 	 35.7546 	 34.8844 	 
C 	 -15.0082 	 35.5477 	 34.6499 	 
C 	 -14.2088 	 36.1104 	 35.6773 	 
C 	 -14.9327 	 36.4872 	 36.8051 	 
H 	 -13.164 	 36.3182 	 35.6718 	 
C 	 -14.4614 	 35.241 	 33.2945 	 
H 	 -13.3947 	 35.3812 	 33.3503 	 
H 	 -14.757 	 36.0797 	 32.6253 	 
C 	 -14.7478 	 33.8704 	 32.6733 	 
H 	 -15.81 	 33.722 	 32.6937 	 
H 	 -14.3755 	 34.0228 	 31.6743 	 
C 	 -14.0318 	 32.7453 	 33.4831 	 
H 	 -14.3469 	 31.7998 	 33.1529 	 
H 	 -12.977 	 32.9729 	 33.3123 	 
H 	 -14.1367 	 32.8934 	 34.6493 	 
S 	 -15.0966 	 38.704 	 38.3496 	 
C 	 -14.0015 	 38.9975 	 39.7534 	 
C 	 -13.0776 	 38.0087 	 39.7712 	 
C 	 -13.2317 	 36.9933 	 38.7661 	 
C 	 -14.3692 	 37.1836 	 37.9541 	 
H 	 -12.3132 	 38.1737 	 40.5496 	 
C 	 -12.2688 	 35.8018 	 38.5755 	 
H 	 -11.5756 	 36.136 	 37.8225 	 
H 	 -12.7975 	 34.9724 	 38.1215 	 
C 	 -11.4326 	 35.3124 	 39.7528 	 
H 	 -12.0831 	 34.77 	 40.4117 	 
H 	 -10.9976 	 36.1403 	 40.3534 	 
C 	 -10.2664 	 34.3578 	 39.4812 	 
H 	 -9.7632 	 34.1163 	 40.396 	 
H 	 -9.47408 	 34.7462 	 38.7648 	 
H 	 -10.5748 	 33.422 	 39.0469 	 
H 	 -17.0231 	 35.5225 	 34.0248 	 
H 	 -13.9114 	 39.8965 	 40.3834 	 
