34

S 	 26.7678 	 -11.6607 	 78.3938 	 
C 	 26.9708 	 -11.9153 	 76.6525 	 
C 	 25.7819 	 -12.1314 	 76.0307 	 
C 	 24.6794 	 -12.0827 	 76.9904 	 
C 	 25.0776 	 -12.0471 	 78.302 	 
H 	 23.6906 	 -12.2983 	 76.6923 	 
C 	 25.6525 	 -12.3219 	 74.5617 	 
H 	 25.2433 	 -13.266 	 74.4745 	 
H 	 26.6395 	 -12.2937 	 74.0343 	 
C 	 24.647 	 -11.3226 	 73.9736 	 
H 	 24.619 	 -11.3328 	 72.8551 	 
H 	 23.6448 	 -11.5834 	 74.2823 	 
C 	 24.8698 	 -9.8318 	 74.3718 	 
H 	 24.3535 	 -9.07333 	 73.7817 	 
H 	 24.8227 	 -9.73416 	 75.4565 	 
H 	 25.8834 	 -9.6285 	 74.0819 	 
S 	 24.9552 	 -13.7124 	 80.4926 	 
C 	 23.5358 	 -13.8209 	 81.434 	 
C 	 22.5239 	 -13.0341 	 80.9509 	 
C 	 22.9059 	 -12.2485 	 79.8422 	 
C 	 24.2466 	 -12.513 	 79.4207 	 
H 	 21.5361 	 -13.3054 	 81.3282 	 
C 	 21.9417 	 -11.2351 	 79.259 	 
H 	 22.55 	 -10.4355 	 78.832 	 
H 	 21.3488 	 -10.8246 	 80.0413 	 
C 	 20.9638 	 -11.8306 	 78.2179 	 
H 	 20.6699 	 -12.7546 	 78.7702 	 
H 	 21.5414 	 -12.1598 	 77.3723 	 
C 	 19.834 	 -10.9514 	 77.7238 	 
H 	 19.4019 	 -10.3639 	 78.4806 	 
H 	 19.0384 	 -11.5456 	 77.3622 	 
H 	 20.1078 	 -10.3216 	 76.9279 	 
H 	 27.9045 	 -11.9595 	 76.1476 	 
H 	 23.4235 	 -14.5161 	 82.2106 	 
