34

S 	 -91.1921 	 52.5187 	 122.105 	 
C 	 -90.0628 	 51.2498 	 122.209 	 
C 	 -90.582 	 50.1868 	 122.882 	 
C 	 -91.8745 	 50.4465 	 123.334 	 
C 	 -92.2838 	 51.68 	 123.094 	 
H 	 -92.4449 	 49.8191 	 124.01 	 
C 	 -89.8629 	 48.9031 	 123.255 	 
H 	 -90.0558 	 48.9079 	 124.306 	 
H 	 -88.8025 	 48.9228 	 123.023 	 
C 	 -90.2925 	 47.6404 	 122.495 	 
H 	 -91.3858 	 47.6138 	 122.638 	 
H 	 -90.2668 	 47.7967 	 121.366 	 
C 	 -89.6372 	 46.3898 	 122.977 	 
H 	 -88.5925 	 46.544 	 122.984 	 
H 	 -89.8257 	 46.2842 	 124.042 	 
H 	 -89.8384 	 45.4643 	 122.538 	 
S 	 -94.5714 	 53.1086 	 122.508 	 
C 	 -95.6761 	 53.4638 	 123.777 	 
C 	 -95.1983 	 53.0849 	 124.977 	 
C 	 -93.9481 	 52.3959 	 124.867 	 
C 	 -93.4965 	 52.2992 	 123.581 	 
H 	 -95.8229 	 53.241 	 125.832 	 
C 	 -93.2062 	 51.9259 	 126.121 	 
H 	 -92.4459 	 51.1575 	 125.895 	 
H 	 -93.8649 	 51.3608 	 126.793 	 
C 	 -92.4532 	 53.0372 	 126.932 	 
H 	 -92.2009 	 52.5913 	 127.923 	 
H 	 -93.0954 	 53.9035 	 127.084 	 
C 	 -91.1482 	 53.4501 	 126.257 	 
H 	 -91.3743 	 54.0559 	 125.331 	 
H 	 -90.4961 	 52.6222 	 125.941 	 
H 	 -90.4971 	 54.0095 	 126.929 	 
H 	 -89.1487 	 51.3244 	 121.657 	 
H 	 -96.6178 	 54.0046 	 123.652 	 
