34

S 	 -2.96958 	 -15.0411 	 83.8353 	 
C 	 -1.297 	 -14.6831 	 83.7296 	 
C 	 -0.578801 	 -15.1204 	 84.8952 	 
C 	 -1.46023 	 -15.6254 	 85.8756 	 
C 	 -2.79911 	 -15.6107 	 85.5032 	 
H 	 -1.10822 	 -16.0966 	 86.759 	 
C 	 0.967781 	 -15.17 	 85.1212 	 
H 	 1.28973 	 -15.8868 	 84.3718 	 
H 	 1.18901 	 -15.5428 	 86.1194 	 
C 	 1.51364 	 -13.7457 	 85.0387 	 
H 	 1.10423 	 -13.2988 	 84.1413 	 
H 	 1.16543 	 -13.2134 	 85.8788 	 
C 	 3.03108 	 -13.7633 	 84.7519 	 
H 	 3.28405 	 -12.7144 	 84.6157 	 
H 	 3.71941 	 -14.1176 	 85.5271 	 
H 	 3.22855 	 -14.346 	 83.831 	 
S 	 -5.13044 	 -17.1087 	 85.6143 	 
C 	 -6.0726 	 -17.1052 	 87.0669 	 
C 	 -5.42948 	 -16.4797 	 88.061 	 
C 	 -4.23212 	 -15.7905 	 87.6564 	 
C 	 -3.94842 	 -15.9731 	 86.3351 	 
H 	 -5.78438 	 -16.558 	 89.0866 	 
C 	 -3.41956 	 -15.0016 	 88.6378 	 
H 	 -2.37019 	 -15.5122 	 88.6975 	 
H 	 -3.82225 	 -15.1197 	 89.6938 	 
C 	 -3.437 	 -13.5116 	 88.4607 	 
H 	 -2.82077 	 -13.3107 	 87.5997 	 
H 	 -2.96313 	 -13.0221 	 89.3739 	 
C 	 -4.87267 	 -12.8518 	 88.2651 	 
H 	 -5.38469 	 -13.2761 	 87.5001 	 
H 	 -4.86993 	 -11.7805 	 88.0929 	 
H 	 -5.4306 	 -13.0516 	 89.2016 	 
H 	 -0.716 	 -14.3038 	 82.8792 	 
H 	 -7.01887 	 -17.4777 	 87.192 	 
