34

S 	 -119.394 	 48.5925 	 133.472 	 
C 	 -120.248 	 49.7941 	 134.433 	 
C 	 -119.592 	 50.0733 	 135.64 	 
C 	 -118.362 	 49.2607 	 135.75 	 
C 	 -118.19 	 48.3932 	 134.666 	 
H 	 -117.666 	 49.3113 	 136.581 	 
C 	 -119.887 	 51.2209 	 136.559 	 
H 	 -120.577 	 51.0394 	 137.435 	 
H 	 -120.445 	 51.9885 	 135.967 	 
C 	 -118.709 	 52.0153 	 137.219 	 
H 	 -119.11 	 52.8879 	 137.703 	 
H 	 -118.304 	 51.3194 	 137.96 	 
C 	 -117.57 	 52.5011 	 136.292 	 
H 	 -117.082 	 51.6568 	 135.754 	 
H 	 -117.873 	 53.2323 	 135.518 	 
H 	 -116.892 	 52.9455 	 137.024 	 
S 	 -117.415 	 45.8446 	 133.96 	 
C 	 -115.701 	 45.5576 	 133.935 	 
C 	 -114.881 	 46.5843 	 134.253 	 
C 	 -115.664 	 47.7244 	 134.631 	 
C 	 -117.035 	 47.518 	 134.458 	 
H 	 -113.763 	 46.3594 	 134.382 	 
C 	 -114.981 	 48.9389 	 135.211 	 
H 	 -114.138 	 48.4399 	 135.765 	 
H 	 -115.695 	 49.4842 	 135.829 	 
C 	 -114.394 	 49.9177 	 134.185 	 
H 	 -113.687 	 49.3616 	 133.593 	 
H 	 -113.921 	 50.7333 	 134.687 	 
C 	 -115.547 	 50.4892 	 133.29 	 
H 	 -115.937 	 49.7777 	 132.582 	 
H 	 -115.144 	 51.2289 	 132.638 	 
H 	 -116.345 	 50.7918 	 133.97 	 
H 	 -121.14 	 50.4005 	 134.119 	 
H 	 -115.41 	 44.5442 	 133.775 	 
