34

S 	 49.3396 	 6.66664 	 89.058 	 
C 	 49.2076 	 5.65477 	 87.6321 	 
C 	 49.4726 	 4.3006 	 87.8092 	 
C 	 49.9128 	 4.11648 	 89.166 	 
C 	 49.995 	 5.34104 	 89.925 	 
H 	 49.9738 	 3.17391 	 89.6897 	 
C 	 49.3798 	 3.2349 	 86.7368 	 
H 	 48.4474 	 3.31264 	 86.1041 	 
H 	 49.2025 	 2.25214 	 87.1805 	 
C 	 50.6433 	 2.91453 	 85.9909 	 
H 	 50.7802 	 3.66738 	 85.1838 	 
H 	 51.4854 	 3.15097 	 86.6751 	 
C 	 50.5754 	 1.49585 	 85.4375 	 
H 	 51.208 	 1.32458 	 84.5316 	 
H 	 51.1093 	 0.80903 	 86.1138 	 
H 	 49.637 	 1.06012 	 85.1776 	 
S 	 49.6325 	 6.66192 	 92.2349 	 
C 	 50.2343 	 5.96825 	 93.6478 	 
C 	 51.2236 	 5.02091 	 93.4359 	 
C 	 51.2093 	 4.56996 	 92.0739 	 
C 	 50.3481 	 5.378 	 91.2889 	 
H 	 51.8105 	 4.75771 	 94.3194 	 
C 	 51.9643 	 3.31529 	 91.6345 	 
H 	 51.2952 	 2.46544 	 91.4057 	 
H 	 52.4291 	 3.0155 	 92.5221 	 
C 	 52.9563 	 3.53173 	 90.4623 	 
H 	 52.5053 	 4.12808 	 89.6566 	 
H 	 53.04 	 2.54372 	 90.035 	 
C 	 54.179 	 4.33229 	 90.9774 	 
H 	 54.0608 	 5.00602 	 91.8573 	 
H 	 54.7834 	 4.76045 	 90.0731 	 
H 	 54.8081 	 3.53825 	 91.3405 	 
H 	 48.7579 	 5.93423 	 86.725 	 
H 	 49.9586 	 6.37791 	 94.6051 	 
