34

S 	 3.98049 	 -11.5616 	 77.2925 	 
C 	 5.37445 	 -11.333 	 78.2716 	 
C 	 5.01391 	 -11.8064 	 79.5462 	 
C 	 3.68904 	 -12.1913 	 79.7114 	 
C 	 2.91138 	 -12.0428 	 78.5925 	 
H 	 3.23014 	 -12.6315 	 80.6001 	 
C 	 5.84718 	 -11.7348 	 80.7778 	 
H 	 5.12887 	 -11.8007 	 81.6071 	 
H 	 6.42264 	 -10.7424 	 80.8251 	 
C 	 6.97101 	 -12.7718 	 80.7062 	 
H 	 6.4314 	 -13.7245 	 80.7712 	 
H 	 7.63183 	 -12.7543 	 79.8286 	 
C 	 7.87124 	 -12.9428 	 81.9237 	 
H 	 7.1655 	 -13.0903 	 82.8052 	 
H 	 8.50533 	 -13.8594 	 81.899 	 
H 	 8.54593 	 -12.1412 	 82.1398 	 
S 	 0.42491 	 -11.0702 	 78.0042 	 
C 	 -0.898793 	 -12.1488 	 77.7812 	 
C 	 -0.55822 	 -13.3982 	 78.3217 	 
C 	 0.79495 	 -13.4849 	 78.764 	 
C 	 1.53663 	 -12.3476 	 78.4694 	 
H 	 -1.40297 	 -14.1489 	 78.338 	 
C 	 1.29702 	 -14.692 	 79.4684 	 
H 	 2.38268 	 -14.5781 	 79.5511 	 
H 	 1.10165 	 -15.4078 	 78.6174 	 
C 	 0.5622 	 -15.0235 	 80.7516 	 
H 	 -0.524871 	 -15.2198 	 80.5835 	 
H 	 0.6923 	 -14.1208 	 81.3208 	 
C 	 1.06116 	 -16.3296 	 81.3773 	 
H 	 0.528426 	 -16.4131 	 82.3002 	 
H 	 2.18951 	 -16.3164 	 81.6545 	 
H 	 0.834764 	 -17.191 	 80.8004 	 
H 	 6.29641 	 -10.8684 	 78.1306 	 
H 	 -1.8908 	 -11.8378 	 77.4007 	 
