34

S 	 -33.0763 	 61.0186 	 110.882 	 
C 	 -32.616 	 59.4739 	 110.406 	 
C 	 -31.3789 	 59.1475 	 110.895 	 
C 	 -30.7219 	 60.1819 	 111.566 	 
C 	 -31.4895 	 61.3717 	 111.501 	 
H 	 -29.7379 	 60.2268 	 112.109 	 
C 	 -30.6512 	 57.7739 	 110.802 	 
H 	 -31.3247 	 57.0129 	 110.772 	 
H 	 -30.0891 	 57.6749 	 111.738 	 
C 	 -29.8725 	 57.4485 	 109.553 	 
H 	 -30.4619 	 57.0362 	 108.787 	 
H 	 -29.4839 	 58.4464 	 109.272 	 
C 	 -28.7379 	 56.3715 	 109.829 	 
H 	 -28.1638 	 56.5378 	 110.76 	 
H 	 -29.1789 	 55.4514 	 110.142 	 
H 	 -28.069 	 56.1518 	 108.944 	 
S 	 -32.2124 	 63.9943 	 112.374 	 
C 	 -30.9273 	 65.1508 	 112.659 	 
C 	 -29.6755 	 64.5051 	 112.48 	 
C 	 -29.7717 	 63.164 	 112.158 	 
C 	 -31.0203 	 62.7116 	 111.882 	 
H 	 -28.7659 	 65.0191 	 112.656 	 
C 	 -28.39 	 62.5122 	 111.761 	 
H 	 -28.1772 	 61.6773 	 112.427 	 
H 	 -27.5452 	 63.1887 	 112.082 	 
C 	 -28.246 	 62.0604 	 110.305 	 
H 	 -28.5208 	 62.9698 	 109.824 	 
H 	 -28.9586 	 61.283 	 109.959 	 
C 	 -26.8309 	 61.5584 	 109.964 	 
H 	 -26.4864 	 61.579 	 108.941 	 
H 	 -26.5422 	 60.616 	 110.476 	 
H 	 -25.9867 	 62.1799 	 110.388 	 
H 	 -33.361 	 58.8003 	 109.97 	 
H 	 -31.0506 	 66.1402 	 112.99 	 
