34

S 	 56.449 	 6.84618 	 63.4393 	 
C 	 57.0912 	 7.76822 	 64.8396 	 
C 	 56.1076 	 8.68483 	 65.2928 	 
C 	 54.8424 	 8.51071 	 64.6856 	 
C 	 54.8273 	 7.61 	 63.6248 	 
H 	 53.9843 	 9.07269 	 64.7835 	 
C 	 56.3469 	 9.80836 	 66.2039 	 
H 	 57.0587 	 9.55874 	 67.0457 	 
H 	 55.4559 	 10.0606 	 66.7068 	 
C 	 56.9499 	 11.0645 	 65.4657 	 
H 	 57.8381 	 10.829 	 65.0435 	 
H 	 56.3245 	 11.4835 	 64.6652 	 
C 	 57.1619 	 12.2506 	 66.4392 	 
H 	 56.2076 	 12.6461 	 66.6889 	 
H 	 57.7067 	 11.9149 	 67.3206 	 
H 	 57.7183 	 13.0869 	 66.0715 	 
S 	 53.1229 	 5.67091 	 62.8959 	 
C 	 52.0532 	 5.90941 	 61.4947 	 
C 	 52.2232 	 7.13132 	 60.9511 	 
C 	 53.2628 	 7.87918 	 61.5386 	 
C 	 53.7523 	 7.27932 	 62.6949 	 
H 	 51.6775 	 7.39205 	 60.0547 	 
C 	 53.7005 	 9.29079 	 60.9451 	 
H 	 54.0971 	 9.90478 	 61.8341 	 
H 	 52.6918 	 9.74415 	 60.8927 	 
C 	 54.6155 	 9.28816 	 59.7193 	 
H 	 55.6429 	 9.05988 	 59.9886 	 
H 	 54.7043 	 10.3165 	 59.374 	 
C 	 54.0491 	 8.458 	 58.5254 	 
H 	 53.8905 	 7.44725 	 58.8282 	 
H 	 54.8185 	 8.35604 	 57.678 	 
H 	 53.0762 	 8.88771 	 58.1954 	 
H 	 58.1708 	 7.94644 	 64.9685 	 
H 	 51.3021 	 5.24147 	 61.0947 	 
