34

S 	 67.3278 	 23.9348 	 73.4587 	 
C 	 68.327 	 23.0971 	 74.6123 	 
C 	 69.0586 	 23.9528 	 75.401 	 
C 	 68.8535 	 25.2901 	 75.0224 	 
C 	 68.0412 	 25.4731 	 73.9388 	 
H 	 69.232 	 26.0977 	 75.5447 	 
C 	 69.9338 	 23.3562 	 76.479 	 
H 	 70.5513 	 22.5527 	 76.157 	 
H 	 69.2867 	 23.0302 	 77.2859 	 
C 	 70.861 	 24.4103 	 77.1505 	 
H 	 71.417 	 24.9199 	 76.3702 	 
H 	 70.192 	 25.1321 	 77.6573 	 
C 	 71.7462 	 23.7493 	 78.1611 	 
H 	 72.3235 	 22.8512 	 77.8269 	 
H 	 72.5759 	 24.3643 	 78.4413 	 
H 	 71.1819 	 23.3938 	 79.0502 	 
S 	 67.7423 	 26.7458 	 71.5954 	 
C 	 67.2547 	 28.4729 	 71.6186 	 
C 	 67.1681 	 28.9578 	 72.8553 	 
C 	 67.3591 	 27.9658 	 73.8641 	 
C 	 67.7452 	 26.7414 	 73.3402 	 
H 	 66.6987 	 29.8904 	 73.0555 	 
C 	 67.1722 	 28.1646 	 75.3356 	 
H 	 68.0665 	 28.6223 	 75.8017 	 
H 	 67.1836 	 27.2202 	 75.844 	 
C 	 65.926 	 29.0234 	 75.7639 	 
H 	 65.0302 	 28.5797 	 75.2769 	 
H 	 65.9907 	 29.9315 	 75.1856 	 
C 	 65.7897 	 29.2219 	 77.2536 	 
H 	 65.9764 	 28.225 	 77.7199 	 
H 	 64.7544 	 29.5667 	 77.3568 	 
H 	 66.5478 	 29.892 	 77.6901 	 
H 	 68.289 	 22.0643 	 74.5997 	 
H 	 67.1149 	 29.079 	 70.765 	 
