34

S 	 -76.2169 	 44.7846 	 123.144 	 
C 	 -77.5837 	 44.6781 	 122.07 	 
C 	 -78.6864 	 45.3265 	 122.547 	 
C 	 -78.462 	 45.6191 	 123.91 	 
C 	 -77.1934 	 45.3569 	 124.38 	 
H 	 -79.3005 	 45.8665 	 124.613 	 
C 	 -80.028 	 45.3974 	 121.854 	 
H 	 -79.8008 	 45.135 	 120.785 	 
H 	 -80.533 	 46.3503 	 121.883 	 
C 	 -81.0626 	 44.3328 	 122.307 	 
H 	 -81.0569 	 44.2689 	 123.403 	 
H 	 -81.9892 	 44.7368 	 122.165 	 
C 	 -81.0635 	 43.0226 	 121.602 	 
H 	 -81.133 	 43.1665 	 120.532 	 
H 	 -80.1517 	 42.3809 	 121.735 	 
H 	 -81.9398 	 42.4234 	 121.918 	 
S 	 -75.7717 	 47.1498 	 125.849 	 
C 	 -75.4888 	 46.7674 	 127.529 	 
C 	 -75.9719 	 45.5135 	 127.862 	 
C 	 -76.5452 	 44.8169 	 126.757 	 
C 	 -76.5416 	 45.6074 	 125.637 	 
H 	 -75.6867 	 45.0917 	 128.832 	 
C 	 -77.2245 	 43.4129 	 126.93 	 
H 	 -77.5081 	 43.0522 	 125.958 	 
H 	 -78.1327 	 43.5153 	 127.538 	 
C 	 -76.336 	 42.3022 	 127.507 	 
H 	 -76.1191 	 42.554 	 128.521 	 
H 	 -75.3453 	 42.3416 	 127.101 	 
C 	 -76.9402 	 40.8953 	 127.408 	 
H 	 -77.8451 	 40.7837 	 127.893 	 
H 	 -76.2612 	 40.153 	 127.897 	 
H 	 -77.0359 	 40.5236 	 126.408 	 
H 	 -77.5473 	 44.1737 	 121.127 	 
H 	 -74.9794 	 47.419 	 128.267 	 
