34

S 	 50.1129 	 8.49383 	 96.3807 	 
C 	 51.0849 	 9.81815 	 95.8105 	 
C 	 50.8333 	 9.99788 	 94.4484 	 
C 	 49.9369 	 9.04657 	 93.8976 	 
C 	 49.456 	 8.19314 	 94.8711 	 
H 	 49.6223 	 9.02165 	 92.8734 	 
C 	 51.575 	 10.929 	 93.536 	 
H 	 51.6789 	 10.5292 	 92.4959 	 
H 	 52.5983 	 11.0724 	 93.8907 	 
C 	 50.9651 	 12.3004 	 93.5252 	 
H 	 49.8883 	 12.3015 	 93.3641 	 
H 	 51.118 	 12.7758 	 94.4724 	 
C 	 51.6067 	 13.249 	 92.618 	 
H 	 51.5616 	 13.1561 	 91.4937 	 
H 	 51.1854 	 14.2771 	 92.7948 	 
H 	 52.6462 	 13.3029 	 92.8829 	 
S 	 48.8995 	 5.87209 	 93.6568 	 
C 	 47.3859 	 5.01605 	 94.0837 	 
C 	 46.6237 	 5.80091 	 94.9604 	 
C 	 47.2497 	 6.95106 	 95.4747 	 
C 	 48.4215 	 7.20806 	 94.7206 	 
H 	 45.6632 	 5.40735 	 95.2314 	 
C 	 46.526 	 7.63395 	 96.6463 	 
H 	 45.4963 	 7.78004 	 96.3132 	 
H 	 47.0169 	 8.60029 	 96.7751 	 
C 	 46.512 	 6.77536 	 97.9566 	 
H 	 45.8637 	 5.87213 	 97.9105 	 
H 	 45.9924 	 7.40831 	 98.6904 	 
C 	 47.8861 	 6.45814 	 98.5984 	 
H 	 48.2876 	 5.5769 	 98.1193 	 
H 	 47.7293 	 6.17039 	 99.5659 	 
H 	 48.6226 	 7.2404 	 98.7123 	 
H 	 51.6399 	 10.4759 	 96.4568 	 
H 	 46.9981 	 4.16306 	 93.5639 	 
