34

S 	 -83.4192 	 49.0091 	 136.361 	 
C 	 -84.076 	 47.7066 	 137.378 	 
C 	 -83.8079 	 48.0034 	 138.752 	 
C 	 -83.0425 	 49.148 	 138.928 	 
C 	 -82.7689 	 49.8054 	 137.735 	 
H 	 -82.8109 	 49.5024 	 139.922 	 
C 	 -84.2598 	 47.1594 	 139.974 	 
H 	 -84.8675 	 46.3925 	 139.57 	 
H 	 -84.8136 	 47.8217 	 140.616 	 
C 	 -83.1805 	 46.4977 	 140.914 	 
H 	 -82.4865 	 47.2059 	 141.402 	 
H 	 -83.6615 	 45.9443 	 141.736 	 
C 	 -82.4302 	 45.3867 	 140.226 	 
H 	 -81.8914 	 45.8077 	 139.374 	 
H 	 -81.6676 	 44.8915 	 140.851 	 
H 	 -83.0493 	 44.4984 	 140.055 	 
S 	 -82.9825 	 52.5598 	 137.71 	 
C 	 -81.4674 	 53.5323 	 137.682 	 
C 	 -80.3428 	 52.6961 	 137.574 	 
C 	 -80.6459 	 51.3205 	 137.561 	 
C 	 -82.0381 	 51.0861 	 137.562 	 
H 	 -79.3847 	 53.1488 	 137.44 	 
C 	 -79.6627 	 50.2254 	 137.653 	 
H 	 -79.1491 	 50.0571 	 136.69 	 
H 	 -80.1826 	 49.2338 	 137.7 	 
C 	 -78.8103 	 50.2726 	 138.865 	 
H 	 -77.9665 	 50.9604 	 138.646 	 
H 	 -78.242 	 49.3018 	 138.973 	 
C 	 -79.4663 	 50.5277 	 140.193 	 
H 	 -79.9255 	 51.5744 	 140.282 	 
H 	 -78.6503 	 50.517 	 141.007 	 
H 	 -80.1659 	 49.774 	 140.499 	 
H 	 -84.6812 	 46.8483 	 137.073 	 
H 	 -81.4149 	 54.585 	 137.52 	 
