34

S 	 41.4689 	 10.6598 	 81.0296 	 
C 	 43.0137 	 10.6239 	 80.2 	 
C 	 42.9799 	 11.7131 	 79.3004 	 
C 	 41.9811 	 12.6712 	 79.6292 	 
C 	 41.1615 	 12.3484 	 80.7101 	 
H 	 41.7318 	 13.472 	 79.0248 	 
C 	 43.9787 	 11.7786 	 78.179 	 
H 	 44.6497 	 10.8813 	 78.2568 	 
H 	 44.6599 	 12.6203 	 78.4353 	 
C 	 43.4242 	 11.9226 	 76.78 	 
H 	 43.0418 	 10.9934 	 76.444 	 
H 	 42.5563 	 12.5571 	 76.8038 	 
C 	 44.4157 	 12.5638 	 75.7269 	 
H 	 45.3741 	 12.0361 	 75.5701 	 
H 	 44.0659 	 12.8302 	 74.7614 	 
H 	 44.6878 	 13.545 	 76.1606 	 
S 	 38.4061 	 12.4145 	 81.1308 	 
C 	 37.7257 	 13.8686 	 81.8807 	 
C 	 38.69 	 14.7767 	 82.3877 	 
C 	 40.0371 	 14.258 	 82.0403 	 
C 	 40.009 	 13.0127 	 81.3237 	 
H 	 38.4617 	 15.6115 	 82.9781 	 
C 	 41.3209 	 14.9651 	 82.3565 	 
H 	 42.1203 	 14.3243 	 82.0296 	 
H 	 41.5593 	 15.1918 	 83.3892 	 
C 	 41.4579 	 16.1427 	 81.3259 	 
H 	 40.7384 	 16.9382 	 81.538 	 
H 	 41.1105 	 15.8136 	 80.305 	 
C 	 42.8842 	 16.6914 	 81.2493 	 
H 	 43.645 	 16.2806 	 81.9171 	 
H 	 42.9151 	 17.7428 	 81.3374 	 
H 	 43.3729 	 16.4055 	 80.2844 	 
H 	 43.7464 	 9.73378 	 80.1833 	 
H 	 36.6915 	 14.1307 	 82.1072 	 
