34

S 	 4.43293 	 -16.192 	 85.3521 	 
C 	 5.24541 	 -15.7587 	 83.82 	 
C 	 6.52732 	 -15.2815 	 84.1509 	 
C 	 6.77813 	 -15.1218 	 85.5748 	 
C 	 5.7628 	 -15.4763 	 86.357 	 
H 	 7.74131 	 -14.9309 	 85.9844 	 
C 	 7.69072 	 -15.2295 	 83.1957 	 
H 	 8.42593 	 -14.4745 	 83.505 	 
H 	 7.36784 	 -14.7517 	 82.3255 	 
C 	 8.23852 	 -16.6872 	 82.9568 	 
H 	 8.61947 	 -17.0375 	 83.896 	 
H 	 7.50993 	 -17.3687 	 82.5046 	 
C 	 9.39029 	 -16.746 	 82.0223 	 
H 	 9.36668 	 -15.9634 	 81.3323 	 
H 	 10.3196 	 -16.7313 	 82.5336 	 
H 	 9.50806 	 -17.6512 	 81.3939 	 
S 	 5.45017 	 -16.9648 	 88.6171 	 
C 	 5.51509 	 -16.265 	 90.2294 	 
C 	 5.86128 	 -14.9393 	 90.1291 	 
C 	 6.07462 	 -14.5411 	 88.7751 	 
C 	 5.76291 	 -15.4708 	 87.8244 	 
H 	 5.81155 	 -14.3696 	 91.0476 	 
C 	 6.31063 	 -13.075 	 88.4008 	 
H 	 5.54476 	 -12.7303 	 87.7112 	 
H 	 7.28645 	 -13.0518 	 87.8955 	 
C 	 6.46248 	 -12.1143 	 89.6449 	 
H 	 7.28027 	 -12.5009 	 90.3047 	 
H 	 5.49476 	 -12.1367 	 90.2293 	 
C 	 6.6904 	 -10.6363 	 89.3038 	 
H 	 7.55483 	 -10.6554 	 88.6653 	 
H 	 6.73536 	 -10.02 	 90.1436 	 
H 	 5.88115 	 -9.93648 	 88.8371 	 
H 	 4.97252 	 -16.1263 	 82.8387 	 
H 	 5.47322 	 -16.7544 	 91.1429 	 
