34

S 	 -12.4247 	 -11.8619 	 91.3594 	 
C 	 -13.9645 	 -11.1489 	 91.9182 	 
C 	 -14.6761 	 -10.6553 	 90.8472 	 
C 	 -13.9547 	 -10.8081 	 89.6245 	 
C 	 -12.8175 	 -11.5376 	 89.7261 	 
H 	 -14.3327 	 -10.517 	 88.6367 	 
C 	 -16.0223 	 -10.0487 	 90.9181 	 
H 	 -16.3663 	 -10.0287 	 89.8545 	 
H 	 -16.0108 	 -9.07112 	 91.2425 	 
C 	 -17.1285 	 -10.8063 	 91.7401 	 
H 	 -17.4499 	 -11.8067 	 91.2571 	 
H 	 -16.8225 	 -10.9831 	 92.7863 	 
C 	 -18.3442 	 -9.94286 	 91.7842 	 
H 	 -18.0671 	 -8.95054 	 92.2009 	 
H 	 -18.8912 	 -9.81951 	 90.8307 	 
H 	 -19.1254 	 -10.2924 	 92.3878 	 
S 	 -10.1982 	 -11.4721 	 88.896 	 
C 	 -9.85914 	 -12.201 	 87.2705 	 
C 	 -10.9872 	 -12.7154 	 86.69 	 
C 	 -12.1494 	 -12.5014 	 87.4161 	 
C 	 -11.8955 	 -11.9358 	 88.668 	 
H 	 -10.861 	 -13.1662 	 85.7443 	 
C 	 -13.4713 	 -12.8231 	 86.8007 	 
H 	 -14.2152 	 -12.5348 	 87.5526 	 
H 	 -13.5786 	 -13.9307 	 86.5646 	 
C 	 -13.7917 	 -12.0229 	 85.5281 	 
H 	 -13.2569 	 -12.4301 	 84.6525 	 
H 	 -13.3836 	 -11.0261 	 85.6332 	 
C 	 -15.2061 	 -12.0646 	 85.1327 	 
H 	 -15.4402 	 -12.8872 	 84.5267 	 
H 	 -15.4087 	 -11.2268 	 84.4873 	 
H 	 -15.9661 	 -12.0018 	 85.9851 	 
H 	 -14.1933 	 -11.0186 	 93.0179 	 
H 	 -8.8362 	 -12.2901 	 86.812 	 
