34

S 	 42.8301 	 18.2279 	 88.7479 	 
C 	 44.2326 	 19.0073 	 89.4383 	 
C 	 44.3973 	 18.5188 	 90.7374 	 
C 	 43.5002 	 17.3977 	 91.0601 	 
C 	 42.6972 	 17.0439 	 89.9679 	 
H 	 43.4523 	 16.8396 	 92.022 	 
C 	 45.3499 	 19.0598 	 91.7644 	 
H 	 45.8429 	 18.2972 	 92.4248 	 
H 	 44.875 	 19.7322 	 92.3656 	 
C 	 46.584 	 19.7793 	 91.0865 	 
H 	 47.0092 	 19.078 	 90.3123 	 
H 	 46.4992 	 20.8045 	 90.6794 	 
C 	 47.7514 	 19.9031 	 92.0777 	 
H 	 47.4245 	 20.3836 	 93.0443 	 
H 	 48.2058 	 18.8895 	 92.1954 	 
H 	 48.5777 	 20.4192 	 91.652 	 
S 	 39.9198 	 16.83 	 90.4459 	 
C 	 39.205 	 15.229 	 90.3396 	 
C 	 40.0506 	 14.2418 	 89.8813 	 
C 	 41.3809 	 14.7986 	 89.5953 	 
C 	 41.5274 	 16.1373 	 90.0309 	 
H 	 39.7225 	 13.1918 	 89.7037 	 
C 	 42.5917 	 14.0632 	 89.0632 	 
H 	 43.4375 	 14.6859 	 88.7825 	 
H 	 42.2917 	 13.5727 	 88.1293 	 
C 	 43.2348 	 12.9266 	 89.9526 	 
H 	 43.7935 	 12.2649 	 89.2762 	 
H 	 42.4852 	 12.2928 	 90.349 	 
C 	 44.118 	 13.4829 	 91.1346 	 
H 	 44.6236 	 12.5503 	 91.5978 	 
H 	 43.5193 	 13.9017 	 92.0281 	 
H 	 44.8649 	 14.3113 	 90.8518 	 
H 	 44.6927 	 19.944 	 89.1723 	 
H 	 38.1516 	 15.0104 	 90.5645 	 
