34

S 	 -39.3105 	 52.14 	 105.314 	 
C 	 -38.048 	 51.0376 	 105.973 	 
C 	 -38.5185 	 49.7472 	 105.972 	 
C 	 -39.8936 	 49.6497 	 105.652 	 
C 	 -40.4707 	 50.8137 	 105.127 	 
H 	 -40.4948 	 48.7023 	 105.64 	 
C 	 -37.6104 	 48.5025 	 106.053 	 
H 	 -36.642 	 48.8358 	 106.486 	 
H 	 -37.3976 	 48.1164 	 105.102 	 
C 	 -38.1735 	 47.2939 	 106.784 	 
H 	 -39.0763 	 47.0668 	 106.28 	 
H 	 -37.5473 	 46.364 	 106.689 	 
C 	 -38.2887 	 47.4349 	 108.29 	 
H 	 -39.1916 	 46.8434 	 108.541 	 
H 	 -37.283 	 47.1807 	 108.698 	 
H 	 -38.5717 	 48.4038 	 108.614 	 
S 	 -42.4073 	 52.6777 	 104.884 	 
C 	 -44.0614 	 52.2504 	 104.588 	 
C 	 -44.1019 	 50.8882 	 104.305 	 
C 	 -42.8841 	 50.187 	 104.312 	 
C 	 -41.8748 	 51.0556 	 104.757 	 
H 	 -45.098 	 50.4713 	 104.108 	 
C 	 -42.6914 	 48.7045 	 103.944 	 
H 	 -42.4208 	 48.1089 	 104.796 	 
H 	 -41.8983 	 48.5378 	 103.207 	 
C 	 -43.9166 	 48.001 	 103.342 	 
H 	 -44.6799 	 47.854 	 104.139 	 
H 	 -43.5602 	 47.0588 	 103.208 	 
C 	 -44.5244 	 48.553 	 102.025 	 
H 	 -45.1625 	 49.3875 	 102.103 	 
H 	 -45.0746 	 47.7188 	 101.534 	 
H 	 -43.8049 	 48.8918 	 101.391 	 
H 	 -36.9134 	 51.1656 	 106.016 	 
H 	 -44.8771 	 52.926 	 104.258 	 
