34

S 	 40.7995 	 22.1386 	 82.6595 	 
C 	 41.2239 	 23.5861 	 83.486 	 
C 	 42.0076 	 23.2741 	 84.6492 	 
C 	 42.4047 	 21.9032 	 84.691 	 
C 	 41.8497 	 21.1561 	 83.682 	 
H 	 42.9959 	 21.3746 	 85.4183 	 
C 	 42.4198 	 24.2576 	 85.6917 	 
H 	 42.1488 	 25.2354 	 85.1969 	 
H 	 43.5043 	 24.3145 	 85.9117 	 
C 	 41.5382 	 24.1928 	 86.9985 	 
H 	 40.5067 	 24.1693 	 86.8103 	 
H 	 41.6632 	 23.1996 	 87.4777 	 
C 	 41.955 	 25.2981 	 87.9382 	 
H 	 41.3721 	 25.2451 	 88.8698 	 
H 	 43.0135 	 25.3384 	 88.1875 	 
H 	 41.7174 	 26.3139 	 87.4032 	 
S 	 42.1687 	 19.2619 	 81.7052 	 
C 	 42.2775 	 17.5574 	 82.0022 	 
C 	 42.5007 	 17.3564 	 83.3686 	 
C 	 42.4125 	 18.6036 	 84.1096 	 
C 	 42.0949 	 19.7178 	 83.3642 	 
H 	 42.7588 	 16.3298 	 83.7725 	 
C 	 42.5568 	 18.5307 	 85.5949 	 
H 	 42.1261 	 17.7366 	 86.0951 	 
H 	 41.9502 	 19.4181 	 85.9152 	 
C 	 43.9746 	 18.75 	 86.146 	 
H 	 44.2706 	 19.7323 	 85.7859 	 
H 	 44.5638 	 17.9579 	 85.6573 	 
C 	 44.119 	 18.6643 	 87.6309 	 
H 	 45.1745 	 18.4315 	 87.9469 	 
H 	 43.4938 	 17.8266 	 87.9558 	 
H 	 43.7436 	 19.563 	 88.1644 	 
H 	 40.8585 	 24.6009 	 83.3151 	 
H 	 42.429 	 16.7871 	 81.2459 	 
