34

S 	 -21.7708 	 -3.50552 	 82.2643 	 
C 	 -22.2774 	 -4.53364 	 80.9527 	 
C 	 -22.2197 	 -5.91414 	 81.1966 	 
C 	 -21.7607 	 -6.09727 	 82.526 	 
C 	 -21.4107 	 -4.90717 	 83.2651 	 
H 	 -21.7663 	 -7.06639 	 82.9576 	 
C 	 -22.8192 	 -7.00545 	 80.3734 	 
H 	 -22.7277 	 -7.91081 	 81.0179 	 
H 	 -22.1148 	 -7.12819 	 79.5424 	 
C 	 -24.2759 	 -6.63555 	 79.8617 	 
H 	 -24.164 	 -5.6838 	 79.3434 	 
H 	 -24.6823 	 -7.39101 	 79.1394 	 
C 	 -25.2357 	 -6.63426 	 81.0126 	 
H 	 -26.2969 	 -6.50205 	 80.8151 	 
H 	 -25.1137 	 -7.53098 	 81.6413 	 
H 	 -24.9714 	 -5.7835 	 81.5863 	 
S 	 -22.4748 	 -4.07353 	 85.6351 	 
C 	 -21.7418 	 -4.51008 	 87.1553 	 
C 	 -20.8707 	 -5.4836 	 86.9496 	 
C 	 -20.5411 	 -5.67039 	 85.557 	 
C 	 -21.2866 	 -4.84074 	 84.7134 	 
H 	 -20.2892 	 -5.88428 	 87.7794 	 
C 	 -19.5853 	 -6.74908 	 85.1363 	 
H 	 -19.6481 	 -6.77783 	 84.0834 	 
H 	 -20.0189 	 -7.68744 	 85.4157 	 
C 	 -18.1203 	 -6.65445 	 85.709 	 
H 	 -18.1696 	 -6.86229 	 86.815 	 
H 	 -17.8065 	 -5.579 	 85.6197 	 
C 	 -17.0463 	 -7.64473 	 85.2507 	 
H 	 -17.4792 	 -8.68977 	 85.1747 	 
H 	 -16.1852 	 -7.73259 	 85.8814 	 
H 	 -16.6794 	 -7.47361 	 84.2068 	 
H 	 -22.7568 	 -4.07016 	 80.072 	 
H 	 -22.0864 	 -3.95165 	 88.0005 	 
