34

S 	 -17.3629 	 30.7787 	 39.6153 	 
C 	 -17.9685 	 32.2799 	 40.234 	 
C 	 -18.5013 	 33.0949 	 39.2152 	 
C 	 -18.3843 	 32.4434 	 37.9311 	 
C 	 -17.5701 	 31.2802 	 37.9064 	 
H 	 -18.7584 	 32.8301 	 36.9275 	 
C 	 -19.3208 	 34.373 	 39.3953 	 
H 	 -19.5386 	 34.4142 	 40.4866 	 
H 	 -20.1779 	 34.2913 	 38.7769 	 
C 	 -18.5421 	 35.6988 	 39.0608 	 
H 	 -17.5254 	 35.6572 	 39.5481 	 
H 	 -18.324 	 35.6471 	 38.0119 	 
C 	 -19.2716 	 36.9311 	 39.5037 	 
H 	 -18.9058 	 37.94 	 39.3131 	 
H 	 -20.2283 	 36.9726 	 39.0438 	 
H 	 -19.4611 	 36.9609 	 40.6047 	 
S 	 -17.7347 	 28.7887 	 36.8737 	 
C 	 -17.2113 	 28.4198 	 35.2045 	 
C 	 -16.7063 	 29.5704 	 34.5617 	 
C 	 -16.8682 	 30.7349 	 35.4287 	 
C 	 -17.2633 	 30.4884 	 36.6909 	 
H 	 -16.1857 	 29.461 	 33.6063 	 
C 	 -16.2979 	 32.0651 	 35.0291 	 
H 	 -15.3098 	 31.7663 	 34.5632 	 
H 	 -16.0804 	 32.5765 	 35.9143 	 
C 	 -17.1508 	 32.8704 	 33.9418 	 
H 	 -18.1349 	 33.2191 	 34.3203 	 
H 	 -17.3402 	 32.2774 	 33.0139 	 
C 	 -16.5021 	 34.1519 	 33.4525 	 
H 	 -16.5497 	 34.9802 	 34.1624 	 
H 	 -16.7978 	 34.41 	 32.404 	 
H 	 -15.4387 	 33.9305 	 33.1892 	 
H 	 -18.1062 	 32.4727 	 41.2907 	 
H 	 -17.1511 	 27.3896 	 34.8933 	 
