34

S 	 -19.4713 	 50.7072 	 65.9098 	 
C 	 -18.8633 	 49.173 	 65.4518 	 
C 	 -19.3793 	 48.1232 	 66.1736 	 
C 	 -20.6286 	 48.5797 	 66.7782 	 
C 	 -20.8717 	 49.932 	 66.5766 	 
H 	 -21.2903 	 48.0436 	 67.3732 	 
C 	 -18.9368 	 46.6224 	 66.2948 	 
H 	 -18.9773 	 46.3415 	 67.3197 	 
H 	 -18.0519 	 46.4783 	 65.7738 	 
C 	 -19.9083 	 45.5913 	 65.6795 	 
H 	 -19.8243 	 44.5459 	 66.0052 	 
H 	 -20.8987 	 45.8226 	 66.0493 	 
C 	 -19.9351 	 45.743 	 64.1151 	 
H 	 -19.0304 	 46.1494 	 63.6137 	 
H 	 -20.1513 	 44.8025 	 63.644 	 
H 	 -20.5928 	 46.6134 	 63.9348 	 
S 	 -23.0221 	 51.2067 	 65.2249 	 
C 	 -24.2528 	 51.9726 	 66.2562 	 
C 	 -24.0853 	 51.6777 	 67.6043 	 
C 	 -22.8506 	 50.9772 	 67.8265 	 
C 	 -22.1262 	 50.6358 	 66.6909 	 
H 	 -24.8305 	 52.1305 	 68.2094 	 
C 	 -22.3302 	 50.7004 	 69.2398 	 
H 	 -22.1116 	 51.7008 	 69.6411 	 
H 	 -21.4374 	 50.0987 	 69.2239 	 
C 	 -23.2499 	 49.8282 	 70.1699 	 
H 	 -23.161 	 48.799 	 69.7765 	 
H 	 -24.2548 	 50.3009 	 69.9629 	 
C 	 -22.7275 	 49.907 	 71.6564 	 
H 	 -23.3472 	 49.417 	 72.4168 	 
H 	 -22.9671 	 50.8753 	 71.968 	 
H 	 -21.6927 	 49.6462 	 71.9237 	 
H 	 -17.977 	 48.9939 	 64.9364 	 
H 	 -25.0346 	 52.6553 	 65.9178 	 
