34

S 	 49.2264 	 11.2475 	 89.1864 	 
C 	 49.6664 	 11.9088 	 90.7499 	 
C 	 51.0856 	 12.1037 	 90.8686 	 
C 	 51.735 	 11.6018 	 89.684 	 
C 	 50.9101 	 11.174 	 88.6205 	 
H 	 52.8124 	 11.6053 	 89.5198 	 
C 	 51.8437 	 12.6841 	 92.0483 	 
H 	 51.2524 	 13.4704 	 92.4553 	 
H 	 52.7407 	 13.101 	 91.543 	 
C 	 52.366 	 11.6699 	 93.0767 	 
H 	 52.9816 	 12.2184 	 93.7537 	 
H 	 51.4758 	 11.2461 	 93.6094 	 
C 	 53.1414 	 10.3977 	 92.4849 	 
H 	 54.0522 	 10.7198 	 91.9527 	 
H 	 53.6325 	 9.84368 	 93.3399 	 
H 	 52.6292 	 9.72677 	 91.8091 	 
S 	 52.7529 	 9.63953 	 87.4159 	 
C 	 52.5935 	 9.35577 	 85.61 	 
C 	 51.3055 	 9.6343 	 85.2038 	 
C 	 50.4391 	 10.1214 	 86.2592 	 
C 	 51.1754 	 10.3837 	 87.3974 	 
H 	 50.9607 	 9.49176 	 84.2551 	 
C 	 49.0081 	 10.5427 	 85.9629 	 
H 	 49.0135 	 10.4302 	 84.8673 	 
H 	 48.8854 	 11.5403 	 86.271 	 
C 	 47.9241 	 9.61639 	 86.4969 	 
H 	 48.1724 	 9.47734 	 87.5371 	 
H 	 48.0431 	 8.73521 	 85.888 	 
C 	 46.4975 	 10.2067 	 86.2999 	 
H 	 45.6421 	 9.56341 	 86.5165 	 
H 	 46.2738 	 10.4568 	 85.2689 	 
H 	 46.5347 	 11.1529 	 86.9004 	 
H 	 48.9341 	 12.2812 	 91.459 	 
H 	 53.327 	 8.95638 	 84.9265 	 
