34

S 	 -23.7835 	 31.9627 	 45.7391 	 
C 	 -22.3663 	 31.6618 	 46.6855 	 
C 	 -21.7643 	 30.4845 	 46.2907 	 
C 	 -22.5458 	 29.7844 	 45.3462 	 
C 	 -23.5946 	 30.5041 	 44.8155 	 
H 	 -22.373 	 28.7941 	 44.9215 	 
C 	 -20.5785 	 29.9248 	 46.9678 	 
H 	 -20.2001 	 29.0341 	 46.5256 	 
H 	 -21.0391 	 29.5298 	 47.8742 	 
C 	 -19.5377 	 30.9515 	 47.2827 	 
H 	 -19.3404 	 31.5441 	 46.3967 	 
H 	 -19.8581 	 31.6408 	 48.0642 	 
C 	 -18.2214 	 30.199 	 47.6686 	 
H 	 -17.9005 	 29.6029 	 46.7966 	 
H 	 -17.4351 	 30.8652 	 47.9689 	 
H 	 -18.354 	 29.407 	 48.4679 	 
S 	 -26.3659 	 30.0022 	 44.1649 	 
C 	 -26.6785 	 29.5206 	 42.5075 	 
C 	 -25.5053 	 29.1848 	 41.8838 	 
C 	 -24.3104 	 29.4999 	 42.6112 	 
C 	 -24.5887 	 30.111 	 43.8198 	 
H 	 -25.5791 	 28.756 	 40.8479 	 
C 	 -22.9924 	 29.3947 	 41.8783 	 
H 	 -23.09 	 28.9857 	 40.8949 	 
H 	 -22.3058 	 28.6935 	 42.3925 	 
C 	 -22.2842 	 30.7385 	 41.6427 	 
H 	 -22.0726 	 31.0956 	 42.6859 	 
H 	 -22.8612 	 31.4778 	 41.1379 	 
C 	 -21.0058 	 30.4529 	 40.8658 	 
H 	 -20.6695 	 29.4257 	 40.9581 	 
H 	 -20.233 	 31.0794 	 41.3059 	 
H 	 -21.1681 	 30.7591 	 39.8407 	 
H 	 -21.9521 	 32.4172 	 47.3808 	 
H 	 -27.6175 	 29.1517 	 42.194 	 
