34

S 	 -91.3975 	 57.9397 	 126.169 	 
C 	 -90.3003 	 57.2157 	 127.431 	 
C 	 -89.2331 	 56.6003 	 126.758 	 
C 	 -89.3445 	 56.5802 	 125.331 	 
C 	 -90.5054 	 57.2322 	 124.827 	 
H 	 -88.6635 	 56.1758 	 124.611 	 
C 	 -88.0664 	 55.9436 	 127.502 	 
H 	 -88.0662 	 54.8766 	 127.377 	 
H 	 -88.1641 	 56.0868 	 128.565 	 
C 	 -86.6012 	 56.5111 	 127.116 	 
H 	 -86.4853 	 56.4935 	 126.039 	 
H 	 -86.3562 	 57.512 	 127.55 	 
C 	 -85.5718 	 55.6095 	 127.733 	 
H 	 -85.74 	 54.5545 	 127.481 	 
H 	 -84.5311 	 55.9061 	 127.355 	 
H 	 -85.4868 	 55.6023 	 128.807 	 
S 	 -91.3573 	 58.9642 	 122.816 	 
C 	 -91.769 	 58.3254 	 121.296 	 
C 	 -91.8032 	 56.94 	 121.265 	 
C 	 -91.2725 	 56.3498 	 122.486 	 
C 	 -90.9907 	 57.3476 	 123.446 	 
H 	 -92.1406 	 56.4051 	 120.337 	 
C 	 -91.0011 	 54.8522 	 122.796 	 
H 	 -89.9677 	 54.6915 	 123.177 	 
H 	 -91.0315 	 54.335 	 121.843 	 
C 	 -92.1255 	 54.1941 	 123.677 	 
H 	 -92.9037 	 53.8016 	 122.959 	 
H 	 -92.6996 	 54.9771 	 124.268 	 
C 	 -91.7147 	 53.1033 	 124.646 	 
H 	 -91.3048 	 52.3119 	 124.008 	 
H 	 -92.5294 	 52.7892 	 125.291 	 
H 	 -90.9834 	 53.4062 	 125.4 	 
H 	 -90.3004 	 57.5067 	 128.482 	 
H 	 -92.0649 	 58.9873 	 120.494 	 
