34

S 	 -117.485 	 49.4305 	 128.056 	 
C 	 -117.598 	 50.5774 	 126.753 	 
C 	 -117.488 	 51.8536 	 127.273 	 
C 	 -117.089 	 51.9658 	 128.677 	 
C 	 -117.142 	 50.6757 	 129.288 	 
H 	 -116.859 	 52.8888 	 129.215 	 
C 	 -117.514 	 53.1956 	 126.477 	 
H 	 -116.544 	 53.4132 	 126.003 	 
H 	 -117.575 	 53.9722 	 127.246 	 
C 	 -118.673 	 53.4547 	 125.456 	 
H 	 -118.424 	 54.416 	 124.988 	 
H 	 -118.842 	 52.5874 	 124.779 	 
C 	 -120.025 	 53.7744 	 126.058 	 
H 	 -119.955 	 54.7285 	 126.593 	 
H 	 -120.718 	 54.1052 	 125.242 	 
H 	 -120.445 	 52.9965 	 126.698 	 
S 	 -117.775 	 48.6631 	 131.049 	 
C 	 -117.319 	 48.8116 	 132.689 	 
C 	 -116.785 	 50.049 	 132.943 	 
C 	 -116.543 	 50.8275 	 131.795 	 
C 	 -116.999 	 50.2287 	 130.631 	 
H 	 -116.465 	 50.1703 	 133.997 	 
C 	 -115.801 	 52.1588 	 131.85 	 
H 	 -115.237 	 52.2899 	 130.915 	 
H 	 -115.062 	 52.0079 	 132.623 	 
C 	 -116.724 	 53.4367 	 131.995 	 
H 	 -117.151 	 53.4353 	 132.944 	 
H 	 -117.573 	 53.3667 	 131.284 	 
C 	 -116.038 	 54.7298 	 131.68 	 
H 	 -115.054 	 54.8802 	 132.087 	 
H 	 -116.669 	 55.5607 	 132.03 	 
H 	 -116.2 	 54.8281 	 130.598 	 
H 	 -118.006 	 50.3523 	 125.747 	 
H 	 -117.337 	 47.9979 	 133.379 	 
