34

S 	 -71.8573 	 35.8633 	 124.731 	 
C 	 -70.2791 	 35.7637 	 125.463 	 
C 	 -70.0816 	 36.769 	 126.369 	 
C 	 -71.3192 	 37.4242 	 126.748 	 
C 	 -72.423 	 37.0821 	 125.971 	 
H 	 -71.4134 	 38.2267 	 127.474 	 
C 	 -68.8254 	 37.1454 	 127.068 	 
H 	 -68.62 	 38.1826 	 127.032 	 
H 	 -67.9782 	 36.772 	 126.463 	 
C 	 -68.7414 	 36.7308 	 128.569 	 
H 	 -69.5526 	 37.3509 	 128.942 	 
H 	 -68.9412 	 35.6849 	 128.752 	 
C 	 -67.3465 	 37.1043 	 129.121 	 
H 	 -67.4254 	 37.299 	 130.251 	 
H 	 -66.5845 	 36.2752 	 128.981 	 
H 	 -66.9771 	 38.0941 	 128.749 	 
S 	 -74.4584 	 38.2278 	 127.463 	 
C 	 -75.7151 	 39.0608 	 126.665 	 
C 	 -75.5604 	 39.0752 	 125.336 	 
C 	 -74.4169 	 38.4001 	 124.861 	 
C 	 -73.7055 	 37.8095 	 125.925 	 
H 	 -76.2481 	 39.6169 	 124.756 	 
C 	 -74.071 	 38.2772 	 123.411 	 
H 	 -74.862 	 37.6632 	 123.071 	 
H 	 -73.1452 	 37.7829 	 123.167 	 
C 	 -74 	 39.6247 	 122.682 	 
H 	 -73.3018 	 40.42 	 123.021 	 
H 	 -74.9691 	 40.1824 	 122.78 	 
C 	 -73.4779 	 39.4282 	 121.287 	 
H 	 -74.0302 	 38.6501 	 120.781 	 
H 	 -72.4674 	 39.0849 	 121.2 	 
H 	 -73.5898 	 40.3512 	 120.598 	 
H 	 -69.4839 	 35.0842 	 125.085 	 
H 	 -76.5836 	 39.466 	 127.172 	 
