34

S 	 -19.3767 	 51.0682 	 66.9626 	 
C 	 -19.3662 	 49.5918 	 67.9259 	 
C 	 -20.6198 	 49.0818 	 68.1087 	 
C 	 -21.6111 	 49.9999 	 67.6033 	 
C 	 -21.1457 	 51.1307 	 67.0275 	 
H 	 -22.6995 	 49.8117 	 67.609 	 
C 	 -20.9427 	 47.788 	 68.8045 	 
H 	 -21.9927 	 47.8984 	 69.1084 	 
H 	 -20.3558 	 47.7511 	 69.7355 	 
C 	 -20.8769 	 46.4428 	 68.1514 	 
H 	 -21.5109 	 45.81 	 68.672 	 
H 	 -21.3595 	 46.4443 	 67.1398 	 
C 	 -19.5094 	 45.7742 	 67.976 	 
H 	 -19.5643 	 44.885 	 67.2806 	 
H 	 -18.8504 	 46.611 	 67.5445 	 
H 	 -19.1487 	 45.4609 	 68.9168 	 
S 	 -21.3997 	 52.6614 	 64.8603 	 
C 	 -22.9727 	 53.373 	 64.4243 	 
C 	 -23.8237 	 53.3249 	 65.5052 	 
C 	 -23.2632 	 52.6908 	 66.6847 	 
C 	 -22.0137 	 52.0955 	 66.3578 	 
H 	 -24.758 	 53.7971 	 65.5184 	 
C 	 -24.0726 	 52.4882 	 67.9791 	 
H 	 -23.362 	 52.4484 	 68.8099 	 
H 	 -24.5665 	 51.5024 	 68.067 	 
C 	 -25.1407 	 53.604 	 68.2751 	 
H 	 -26.0927 	 53.4493 	 67.6901 	 
H 	 -24.7632 	 54.5662 	 67.9686 	 
C 	 -25.4661 	 53.7122 	 69.8025 	 
H 	 -25.6936 	 54.7205 	 70.2063 	 
H 	 -24.666 	 53.1349 	 70.3467 	 
H 	 -26.3309 	 53.0262 	 70.0736 	 
H 	 -18.3843 	 49.0335 	 68.1164 	 
H 	 -23.3702 	 53.8423 	 63.5236 	 
