34

S 	 -26.119 	 54.8519 	 110.313 	 
C 	 -27.3745 	 53.611 	 110.235 	 
C 	 -28.4842 	 53.9361 	 110.93 	 
C 	 -28.3979 	 55.3288 	 111.308 	 
C 	 -27.1512 	 55.937 	 111.217 	 
H 	 -29.2759 	 55.9178 	 111.606 	 
C 	 -29.7562 	 53.0936 	 111.124 	 
H 	 -30.0174 	 52.7137 	 110.093 	 
H 	 -30.541 	 53.8381 	 111.286 	 
C 	 -29.7308 	 52.0033 	 112.235 	 
H 	 -30.5377 	 51.3036 	 112.139 	 
H 	 -28.8664 	 51.3465 	 111.905 	 
C 	 -29.5614 	 52.7042 	 113.56 	 
H 	 -30.2277 	 53.5339 	 113.786 	 
H 	 -29.6486 	 52.0177 	 114.392 	 
H 	 -28.5008 	 53.0937 	 113.58 	 
S 	 -26.3831 	 58.2961 	 110.063 	 
C 	 -26.3979 	 59.7732 	 111.012 	 
C 	 -26.9177 	 59.5635 	 112.291 	 
C 	 -27.1616 	 58.179 	 112.555 	 
C 	 -26.8606 	 57.3362 	 111.473 	 
H 	 -26.8024 	 60.4085 	 112.922 	 
C 	 -27.6877 	 57.6977 	 113.857 	 
H 	 -28.6333 	 57.1248 	 113.64 	 
H 	 -28.0586 	 58.5538 	 114.453 	 
C 	 -26.8201 	 56.7573 	 114.637 	 
H 	 -26.3811 	 56.0137 	 113.907 	 
H 	 -27.3464 	 56.263 	 115.522 	 
C 	 -25.5768 	 57.3368 	 115.215 	 
H 	 -25.0626 	 57.8686 	 114.478 	 
H 	 -24.8515 	 56.5983 	 115.665 	 
H 	 -25.8803 	 58.0322 	 115.967 	 
H 	 -27.3563 	 52.6416 	 109.852 	 
H 	 -26.1995 	 60.8196 	 110.638 	 
