34

S 	 14.6809 	 26.799 	 48.1903 	 
C 	 16.123 	 25.8563 	 47.7472 	 
C 	 15.7382 	 24.6074 	 47.1966 	 
C 	 14.3228 	 24.4211 	 47.2426 	 
C 	 13.6034 	 25.5018 	 47.8149 	 
H 	 13.8726 	 23.5008 	 46.9332 	 
C 	 16.7372 	 23.5735 	 46.6784 	 
H 	 16.0711 	 22.764 	 46.4473 	 
H 	 17.4264 	 23.2328 	 47.4376 	 
C 	 17.4868 	 23.7858 	 45.3729 	 
H 	 16.7494 	 24.013 	 44.5815 	 
H 	 18.0492 	 24.7392 	 45.6185 	 
C 	 18.326 	 22.6197 	 44.9005 	 
H 	 18.8347 	 22.1329 	 45.7117 	 
H 	 17.8041 	 21.8386 	 44.4479 	 
H 	 19.0984 	 22.8913 	 44.0879 	 
S 	 11.4732 	 27.0727 	 46.8538 	 
C 	 9.82101 	 26.5553 	 47.2587 	 
C 	 9.82264 	 25.4255 	 48.0726 	 
C 	 11.1867 	 25.041 	 48.4434 	 
C 	 12.1929 	 25.7474 	 47.8119 	 
H 	 8.94258 	 24.9078 	 48.3392 	 
C 	 11.5031 	 23.7591 	 49.1643 	 
H 	 12.5715 	 23.5164 	 49.068 	 
H 	 10.9458 	 22.9584 	 48.685 	 
C 	 11.0368 	 23.625 	 50.7023 	 
H 	 10.0891 	 24.0335 	 50.9418 	 
H 	 11.7251 	 24.3617 	 51.2492 	 
C 	 11.2484 	 22.2769 	 51.2907 	 
H 	 12.2558 	 21.9829 	 51.1035 	 
H 	 10.4634 	 21.5772 	 50.9646 	 
H 	 11.013 	 22.3846 	 52.328 	 
H 	 17.116 	 26.1829 	 47.736 	 
H 	 8.90715 	 26.9725 	 46.8565 	 
