34

S 	 -0.464493 	 13.9884 	 82.9331 	 
C 	 -2.10845 	 13.4709 	 82.6181 	 
C 	 -2.26712 	 12.1419 	 82.9036 	 
C 	 -1.14633 	 11.6144 	 83.5302 	 
C 	 -0.00430249 	 12.4503 	 83.5746 	 
H 	 -1.05473 	 10.6048 	 83.8158 	 
C 	 -3.47467 	 11.2362 	 82.5973 	 
H 	 -4.38875 	 11.8868 	 82.5727 	 
H 	 -3.55474 	 10.6163 	 83.5201 	 
C 	 -3.43415 	 10.5073 	 81.2497 	 
H 	 -3.46588 	 11.2768 	 80.4078 	 
H 	 -2.55302 	 9.91055 	 81.1349 	 
C 	 -4.78267 	 9.6003 	 81.193 	 
H 	 -5.65843 	 10.2315 	 81.3314 	 
H 	 -4.87889 	 9.16856 	 80.1835 	 
H 	 -4.74381 	 8.82964 	 81.9514 	 
S 	 1.35432 	 10.7667 	 85.2941 	 
C 	 3.06661 	 10.9113 	 85.3128 	 
C 	 3.59934 	 11.7227 	 84.3048 	 
C 	 2.58056 	 12.3727 	 83.5607 	 
C 	 1.314 	 12.0907 	 84.0856 	 
H 	 4.62208 	 11.8478 	 84.1599 	 
C 	 2.9212 	 13.2443 	 82.3451 	 
H 	 1.95979 	 13.2887 	 81.7132 	 
H 	 3.68558 	 12.7335 	 81.7162 	 
C 	 3.34779 	 14.6692 	 82.6601 	 
H 	 4.32557 	 14.6069 	 83.2545 	 
H 	 2.58561 	 15.3413 	 83.131 	 
C 	 3.52129 	 15.4523 	 81.3598 	 
H 	 2.64747 	 15.4491 	 80.7881 	 
H 	 4.38484 	 14.9304 	 80.8185 	 
H 	 3.89641 	 16.451 	 81.4615 	 
H 	 -2.86797 	 14.0438 	 82.1303 	 
H 	 3.66696 	 10.3204 	 85.9983 	 
