34

S 	 -53.5355 	 60.2651 	 134.399 	 
C 	 -52.5434 	 60.5162 	 133.004 	 
C 	 -52.3682 	 61.8731 	 132.832 	 
C 	 -52.9341 	 62.6894 	 133.851 	 
C 	 -53.6243 	 61.9777 	 134.837 	 
H 	 -52.734 	 63.8083 	 133.906 	 
C 	 -51.5458 	 62.5482 	 131.726 	 
H 	 -52.2013 	 63.1298 	 131.131 	 
H 	 -51.2106 	 61.8029 	 131.013 	 
C 	 -50.2772 	 63.324 	 132.186 	 
H 	 -50.5613 	 64.2771 	 132.614 	 
H 	 -49.7529 	 62.7254 	 132.987 	 
C 	 -49.3127 	 63.6522 	 131.098 	 
H 	 -48.366 	 64.0316 	 131.438 	 
H 	 -49.1217 	 62.8452 	 130.448 	 
H 	 -49.862 	 64.3731 	 130.466 	 
S 	 -55.9716 	 61.6514 	 136.265 	 
C 	 -56.2601 	 62.8311 	 137.551 	 
C 	 -55.1245 	 63.5375 	 137.894 	 
C 	 -54.0435 	 63.3137 	 137.011 	 
C 	 -54.3645 	 62.4306 	 135.945 	 
H 	 -55.1109 	 64.3069 	 138.663 	 
C 	 -52.7725 	 64.1901 	 137.217 	 
H 	 -53.0863 	 65.241 	 137.26 	 
H 	 -52.1094 	 64.1504 	 136.324 	 
C 	 -51.9716 	 63.7124 	 138.439 	 
H 	 -52.713 	 63.6547 	 139.254 	 
H 	 -51.1535 	 64.2994 	 138.745 	 
C 	 -51.5173 	 62.2704 	 138.29 	 
H 	 -50.7692 	 62.1553 	 137.555 	 
H 	 -52.4205 	 61.6894 	 138.069 	 
H 	 -51.1023 	 61.927 	 139.166 	 
H 	 -52.152 	 59.782 	 132.264 	 
H 	 -57.2249 	 63.0009 	 137.993 	 
