34

S 	 -18.6898 	 -4.84685 	 84.2864 	 
C 	 -17.4843 	 -4.90323 	 83.0429 	 
C 	 -16.3119 	 -5.53643 	 83.4822 	 
C 	 -16.5792 	 -6.32419 	 84.6514 	 
C 	 -17.8207 	 -6.00976 	 85.2311 	 
H 	 -15.9398 	 -7.01117 	 85.0701 	 
C 	 -15.0811 	 -5.76632 	 82.5594 	 
H 	 -14.2165 	 -5.78652 	 83.203 	 
H 	 -15.0975 	 -4.88672 	 81.9209 	 
C 	 -15.1393 	 -7.17374 	 81.7306 	 
H 	 -15.2957 	 -7.98918 	 82.4849 	 
H 	 -15.9759 	 -7.13367 	 80.9871 	 
C 	 -13.9565 	 -7.58376 	 80.882 	 
H 	 -13.685 	 -8.61836 	 81.1202 	 
H 	 -14.209 	 -7.65666 	 79.8448 	 
H 	 -13.1492 	 -6.84168 	 81.1651 	 
S 	 -19.8015 	 -7.2656 	 86.5578 	 
C 	 -19.5302 	 -7.87299 	 88.1441 	 
C 	 -18.3783 	 -7.32359 	 88.7348 	 
C 	 -17.5836 	 -6.71659 	 87.7304 	 
C 	 -18.2395 	 -6.5045 	 86.529 	 
H 	 -18.1413 	 -7.50835 	 89.7541 	 
C 	 -16.1774 	 -6.15435 	 88.0277 	 
H 	 -15.7517 	 -5.77749 	 87.1232 	 
H 	 -15.5563 	 -6.95955 	 88.444 	 
C 	 -16.1817 	 -4.9468 	 88.9398 	 
H 	 -16.5853 	 -5.29604 	 89.8725 	 
H 	 -16.8411 	 -4.18015 	 88.6444 	 
C 	 -14.7272 	 -4.60525 	 89.3038 	 
H 	 -14.6055 	 -3.96166 	 90.1945 	 
H 	 -14.277 	 -4.08072 	 88.4597 	 
H 	 -14.1422 	 -5.43594 	 89.4263 	 
H 	 -17.5017 	 -4.21735 	 82.1638 	 
H 	 -20.2667 	 -8.48773 	 88.7071 	 
