34

S 	 39.3342 	 13.6105 	 81.9383 	 
C 	 40.4217 	 14.6114 	 80.9547 	 
C 	 41.6372 	 13.9783 	 80.8737 	 
C 	 41.8278 	 12.7978 	 81.7171 	 
C 	 40.6925 	 12.6108 	 82.4441 	 
H 	 42.6852 	 12.197 	 81.7515 	 
C 	 42.7837 	 14.5154 	 80.0075 	 
H 	 43.7321 	 14.3527 	 80.6588 	 
H 	 42.6223 	 15.5718 	 79.7827 	 
C 	 42.9063 	 13.7902 	 78.6426 	 
H 	 41.891 	 13.4027 	 78.5557 	 
H 	 43.1356 	 14.5511 	 77.8422 	 
C 	 43.86 	 12.6384 	 78.6158 	 
H 	 43.8332 	 12.0382 	 77.6986 	 
H 	 44.7994 	 13.1467 	 78.5285 	 
H 	 43.7772 	 11.8806 	 79.441 	 
S 	 41.3862 	 11.9216 	 84.9708 	 
C 	 40.782 	 10.3706 	 85.6194 	 
C 	 40.0043 	 9.67656 	 84.7039 	 
C 	 39.8827 	 10.3458 	 83.4518 	 
C 	 40.5137 	 11.5875 	 83.4298 	 
H 	 39.551 	 8.7279 	 84.9834 	 
C 	 39.0588 	 9.77337 	 82.3164 	 
H 	 39.7114 	 9.5527 	 81.4511 	 
H 	 38.3033 	 10.5048 	 81.8852 	 
C 	 38.3142 	 8.48987 	 82.5589 	 
H 	 37.5671 	 8.76089 	 83.3448 	 
H 	 39.0186 	 7.7784 	 82.9072 	 
C 	 37.4572 	 7.94674 	 81.3945 	 
H 	 37.1754 	 6.92726 	 81.67 	 
H 	 38.0478 	 7.86977 	 80.4925 	 
H 	 36.6926 	 8.61184 	 81.1893 	 
H 	 40.0177 	 15.5016 	 80.4624 	 
H 	 40.8936 	 9.9006 	 86.6143 	 
