34

S 	 1.63488 	 -6.09783 	 87.9215 	 
C 	 0.0541717 	 -5.99251 	 88.5044 	 
C 	 -0.389053 	 -7.15602 	 89.066 	 
C 	 0.612769 	 -8.15442 	 89.088 	 
C 	 1.85383 	 -7.72039 	 88.6649 	 
H 	 0.584769 	 -9.17036 	 89.4615 	 
C 	 -1.74682 	 -7.32508 	 89.6635 	 
H 	 -2.16878 	 -8.1152 	 89.0428 	 
H 	 -2.30732 	 -6.39911 	 89.4311 	 
C 	 -1.85093 	 -7.78706 	 91.0856 	 
H 	 -1.07673 	 -8.46052 	 91.2823 	 
H 	 -1.58984 	 -6.94741 	 91.7096 	 
C 	 -3.20858 	 -8.2374 	 91.3711 	 
H 	 -3.4279 	 -8.45296 	 92.4193 	 
H 	 -3.87074 	 -7.42098 	 91.1993 	 
H 	 -3.30168 	 -9.16921 	 90.7868 	 
S 	 4.09911 	 -8.6704 	 87.2071 	 
C 	 4.95628 	 -9.99416 	 87.8287 	 
C 	 4.66262 	 -10.1752 	 89.1593 	 
C 	 3.58434 	 -9.34561 	 89.5915 	 
C 	 3.1338 	 -8.46254 	 88.6614 	 
H 	 5.25327 	 -10.9501 	 89.7394 	 
C 	 3.05656 	 -9.56011 	 90.9943 	 
H 	 3.60126 	 -10.4118 	 91.3376 	 
H 	 2.01335 	 -9.90547 	 90.8695 	 
C 	 3.27308 	 -8.30621 	 91.9189 	 
H 	 2.97869 	 -7.47981 	 91.2927 	 
H 	 4.3492 	 -8.12645 	 92.1219 	 
C 	 2.48123 	 -8.18585 	 93.269 	 
H 	 2.63972 	 -8.96475 	 94.0092 	 
H 	 1.40891 	 -7.92854 	 93.0579 	 
H 	 2.85269 	 -7.20584 	 93.8047 	 
H 	 -0.537457 	 -5.10415 	 88.3637 	 
H 	 5.62865 	 -10.4847 	 87.161 	 
