34

S 	 -33.8304 	 56.7842 	 100.664 	 
C 	 -33.4463 	 55.741 	 99.3156 	 
C 	 -32.3406 	 54.9017 	 99.5812 	 
C 	 -31.8816 	 55.1056 	 100.911 	 
C 	 -32.5261 	 56.1202 	 101.601 	 
H 	 -31.1706 	 54.4812 	 101.419 	 
C 	 -31.6558 	 53.8308 	 98.7186 	 
H 	 -31.9244 	 53.9858 	 97.6744 	 
H 	 -32.1857 	 52.9027 	 98.9878 	 
C 	 -30.0876 	 53.7012 	 98.8145 	 
H 	 -29.7047 	 53.5916 	 99.7929 	 
H 	 -29.8577 	 52.752 	 98.266 	 
C 	 -29.3447 	 54.845 	 98.1123 	 
H 	 -29.7332 	 54.9987 	 97.0653 	 
H 	 -29.5856 	 55.7551 	 98.6595 	 
H 	 -28.3022 	 54.619 	 98.2352 	 
S 	 -33.8604 	 56.2761 	 103.959 	 
C 	 -32.9159 	 56.3802 	 105.523 	 
C 	 -31.5583 	 56.5449 	 105.243 	 
C 	 -31.2612 	 56.6343 	 103.865 	 
C 	 -32.4037 	 56.3796 	 103.034 	 
H 	 -30.9784 	 56.6355 	 106.182 	 
C 	 -29.8668 	 56.6789 	 103.521 	 
H 	 -29.4499 	 55.7189 	 103.685 	 
H 	 -29.3949 	 57.311 	 104.305 	 
C 	 -29.4593 	 57.3695 	 102.238 	 
H 	 -29.9821 	 58.2304 	 101.837 	 
H 	 -29.6016 	 56.6799 	 101.435 	 
C 	 -27.9794 	 57.616 	 102.355 	 
H 	 -27.8418 	 58.3533 	 103.135 	 
H 	 -27.537 	 57.911 	 101.401 	 
H 	 -27.4574 	 56.71 	 102.711 	 
H 	 -34.0236 	 55.7778 	 98.3685 	 
H 	 -33.3203 	 56.5679 	 106.483 	 
