34

S 	 0.53976 	 -13.9411 	 80.9627 	 
C 	 0.0274254 	 -14.3009 	 82.5805 	 
C 	 -0.386001 	 -13.146 	 83.2207 	 
C 	 -0.670453 	 -12.0657 	 82.2968 	 
C 	 -0.295203 	 -12.4066 	 81.0238 	 
H 	 -0.990394 	 -11.0626 	 82.5111 	 
C 	 -0.728327 	 -12.9812 	 84.6958 	 
H 	 -1.42227 	 -12.1393 	 84.7517 	 
H 	 0.215157 	 -12.7716 	 85.1533 	 
C 	 -1.36434 	 -14.1566 	 85.4347 	 
H 	 -2.14503 	 -14.6027 	 84.9111 	 
H 	 -0.631675 	 -15.0074 	 85.4997 	 
C 	 -1.76566 	 -13.814 	 86.9562 	 
H 	 -2.63923 	 -13.1249 	 86.9965 	 
H 	 -1.99219 	 -14.7537 	 87.4975 	 
H 	 -0.990687 	 -13.405 	 87.5388 	 
S 	 1.33876 	 -11.4392 	 79.0238 	 
C 	 0.538875 	 -10.3922 	 77.8238 	 
C 	 -0.686823 	 -9.97423 	 78.255 	 
C 	 -1.22792 	 -10.7031 	 79.3168 	 
C 	 -0.237262 	 -11.5596 	 79.8613 	 
H 	 -1.13836 	 -9.20844 	 77.6745 	 
C 	 -2.63839 	 -10.5945 	 79.826 	 
H 	 -3.06578 	 -9.95172 	 79.0576 	 
H 	 -2.59715 	 -9.9932 	 80.6893 	 
C 	 -3.45035 	 -11.8086 	 80.0796 	 
H 	 -2.98914 	 -12.4333 	 80.932 	 
H 	 -3.5566 	 -12.4319 	 79.1565 	 
C 	 -4.79375 	 -11.4548 	 80.6009 	 
H 	 -4.61494 	 -11.2805 	 81.708 	 
H 	 -5.49928 	 -12.2967 	 80.364 	 
H 	 -5.19324 	 -10.6107 	 80.0696 	 
H 	 0.259041 	 -15.2154 	 83.1181 	 
H 	 0.982172 	 -9.88809 	 76.9584 	 
