34

S 	 -0.759837 	 58.7859 	 48.6597 	 
C 	 -1.83518 	 57.6709 	 49.5492 	 
C 	 -2.94585 	 57.5035 	 48.7709 	 
C 	 -3.02118 	 58.1988 	 47.5119 	 
C 	 -1.83779 	 58.854 	 47.2402 	 
H 	 -3.92036 	 58.1922 	 46.8767 	 
C 	 -4.09668 	 56.5677 	 49.1687 	 
H 	 -3.74173 	 55.8713 	 49.8983 	 
H 	 -4.355 	 55.8868 	 48.3248 	 
C 	 -5.29059 	 57.3109 	 49.8585 	 
H 	 -4.97665 	 58.0971 	 50.5745 	 
H 	 -5.7895 	 57.8725 	 49.0608 	 
C 	 -6.40226 	 56.3469 	 50.4116 	 
H 	 -7.21362 	 57.0629 	 50.7998 	 
H 	 -6.82201 	 55.6816 	 49.6354 	 
H 	 -5.96189 	 55.7652 	 51.2174 	 
S 	 -0.359749 	 61.0434 	 46.2695 	 
C 	 -0.330426 	 61.3734 	 44.5211 	 
C 	 -0.87414 	 60.3376 	 43.8592 	 
C 	 -1.6331 	 59.4157 	 44.6466 	 
C 	 -1.4405 	 59.606 	 46.0364 	 
H 	 -0.815416 	 60.2536 	 42.7998 	 
C 	 -2.48916 	 58.345 	 43.9835 	 
H 	 -3.39093 	 58.7709 	 43.4829 	 
H 	 -2.88789 	 57.6633 	 44.6521 	 
C 	 -1.75272 	 57.4597 	 43.0493 	 
H 	 -1.18591 	 57.9962 	 42.3078 	 
H 	 -2.45339 	 56.8938 	 42.5054 	 
C 	 -0.71464 	 56.554 	 43.759 	 
H 	 -1.0708 	 56.086 	 44.6801 	 
H 	 0.0340072 	 57.2567 	 43.9987 	 
H 	 -0.309482 	 55.7546 	 43.1715 	 
H 	 -1.59664 	 57.0639 	 50.4712 	 
H 	 0.363002 	 62.0588 	 43.9996 	 
