34

S 	 24.3209 	 1.15678 	 83.3656 	 
C 	 25.3659 	 2.50767 	 83.1159 	 
C 	 24.6417 	 3.6752 	 83.1543 	 
C 	 23.2179 	 3.47806 	 83.2536 	 
C 	 22.912 	 2.16043 	 83.3209 	 
H 	 22.4767 	 4.29224 	 83.1155 	 
C 	 25.2961 	 5.01115 	 83.1507 	 
H 	 24.8085 	 5.57845 	 82.355 	 
H 	 26.3223 	 4.92146 	 82.8426 	 
C 	 25.2599 	 5.77443 	 84.5292 	 
H 	 24.2221 	 6.07698 	 84.7113 	 
H 	 25.4487 	 5.06911 	 85.4113 	 
C 	 26.2463 	 6.8697 	 84.4531 	 
H 	 26.1634 	 7.57335 	 83.5878 	 
H 	 26.2921 	 7.60556 	 85.3058 	 
H 	 27.3038 	 6.5445 	 84.4096 	 
S 	 21.1243 	 0.989536 	 85.0128 	 
C 	 19.5124 	 0.680364 	 84.501 	 
C 	 19.3609 	 1.01533 	 83.1976 	 
C 	 20.5856 	 1.42896 	 82.5472 	 
C 	 21.5847 	 1.58868 	 83.4552 	 
H 	 18.4862 	 0.945466 	 82.7116 	 
C 	 20.7049 	 2.01512 	 81.1359 	 
H 	 21.5898 	 2.67559 	 81.0009 	 
H 	 19.8741 	 2.69464 	 81.1227 	 
C 	 20.4159 	 1.00762 	 80.0803 	 
H 	 19.5143 	 0.428847 	 80.3079 	 
H 	 21.155 	 0.272269 	 80.2174 	 
C 	 20.3646 	 1.44807 	 78.6027 	 
H 	 21.3387 	 1.80399 	 78.2708 	 
H 	 19.7387 	 2.28207 	 78.461 	 
H 	 19.7922 	 0.772922 	 77.9315 	 
H 	 26.4323 	 2.36725 	 83.2464 	 
H 	 18.6814 	 0.341392 	 85.0907 	 
