34

S 	 -64.4608 	 49.4316 	 124.029 	 
C 	 -65.9905 	 48.6059 	 124.238 	 
C 	 -66.3588 	 47.9193 	 123.081 	 
C 	 -65.398 	 48.12 	 122.085 	 
C 	 -64.299 	 48.888 	 122.425 	 
H 	 -65.4147 	 47.6376 	 121.096 	 
C 	 -67.5462 	 46.9182 	 123.028 	 
H 	 -68.1827 	 47.2953 	 123.722 	 
H 	 -67.301 	 45.9711 	 123.434 	 
C 	 -68.1716 	 46.6774 	 121.686 	 
H 	 -68.4833 	 47.6079 	 121.178 	 
H 	 -67.3628 	 46.3356 	 120.968 	 
C 	 -69.3407 	 45.7116 	 121.708 	 
H 	 -69.804 	 45.6537 	 120.716 	 
H 	 -69.0165 	 44.7893 	 122.287 	 
H 	 -70.0208 	 46.0649 	 122.516 	 
S 	 -61.631 	 49.3078 	 122.44 	 
C 	 -60.6486 	 49.4582 	 120.981 	 
C 	 -61.5111 	 49.6424 	 119.966 	 
C 	 -62.8853 	 49.4367 	 120.221 	 
C 	 -63.1703 	 49.2817 	 121.609 	 
H 	 -61.1398 	 49.9231 	 118.997 	 
C 	 -63.9198 	 49.3707 	 119.091 	 
H 	 -64.0276 	 50.1197 	 118.317 	 
H 	 -64.9016 	 49.4091 	 119.516 	 
C 	 -63.8968 	 47.9928 	 118.333 	 
H 	 -64.0408 	 47.221 	 119.008 	 
H 	 -62.8869 	 47.8721 	 117.95 	 
C 	 -65.0335 	 47.954 	 117.245 	 
H 	 -64.8363 	 47.0927 	 116.585 	 
H 	 -65.0182 	 48.8275 	 116.608 	 
H 	 -66.0409 	 47.8394 	 117.75 	 
H 	 -66.7226 	 48.6577 	 125.011 	 
H 	 -59.5785 	 49.4933 	 121.075 	 
