34

S 	 40.0309 	 12.6452 	 68.0577 	 
C 	 38.3952 	 12.9127 	 68.6176 	 
C 	 37.7366 	 13.691 	 67.7368 	 
C 	 38.585 	 14.181 	 66.7308 	 
C 	 39.9059 	 13.7753 	 66.7735 	 
H 	 38.1631 	 14.9152 	 65.9908 	 
C 	 36.2068 	 13.9709 	 67.6366 	 
H 	 35.7179 	 13.4102 	 66.8356 	 
H 	 36.0795 	 15.0299 	 67.318 	 
C 	 35.3767 	 13.7247 	 68.7986 	 
H 	 35.5421 	 12.8058 	 69.2065 	 
H 	 35.6937 	 14.393 	 69.5973 	 
C 	 33.893 	 14.0564 	 68.5869 	 
H 	 33.2067 	 13.1413 	 68.5232 	 
H 	 33.5687 	 14.762 	 69.405 	 
H 	 33.6777 	 14.4848 	 67.6258 	 
S 	 42.1315 	 12.7539 	 65.5264 	 
C 	 43.0509 	 13.7686 	 64.3195 	 
C 	 42.4808 	 15.0717 	 64.3517 	 
C 	 41.3187 	 15.2233 	 65.1916 	 
C 	 41.0472 	 14.0998 	 65.9316 	 
H 	 42.9331 	 15.8283 	 63.7058 	 
C 	 40.6183 	 16.577 	 65.2615 	 
H 	 39.7183 	 16.5988 	 65.862 	 
H 	 40.2536 	 16.6588 	 64.1615 	 
C 	 41.4256 	 17.8217 	 65.6987 	 
H 	 42.3507 	 17.8564 	 65.2768 	 
H 	 41.6736 	 17.7394 	 66.7095 	 
C 	 40.822 	 19.1573 	 65.2367 	 
H 	 41.2716 	 19.9943 	 65.748 	 
H 	 39.8891 	 19.1122 	 65.6478 	 
H 	 40.8457 	 19.1997 	 64.1335 	 
H 	 37.9186 	 12.3183 	 69.4012 	 
H 	 43.8517 	 13.3959 	 63.6596 	 
