34

S 	 -1.14884 	 -11.693 	 84.7389 	 
C 	 -0.828824 	 -12.0411 	 86.4367 	 
C 	 -1.92477 	 -12.6674 	 86.9189 	 
C 	 -2.96323 	 -13.0103 	 85.9722 	 
C 	 -2.6464 	 -12.5344 	 84.7223 	 
H 	 -3.86348 	 -13.6296 	 86.226 	 
C 	 -1.93267 	 -13.1425 	 88.3037 	 
H 	 -1.38625 	 -14.1109 	 88.4207 	 
H 	 -3.02987 	 -13.3058 	 88.5595 	 
C 	 -1.52068 	 -12.2358 	 89.5124 	 
H 	 -0.498771 	 -12.1764 	 89.6602 	 
H 	 -2.01523 	 -11.2522 	 89.4744 	 
C 	 -2.12851 	 -12.7338 	 90.7894 	 
H 	 -1.73204 	 -13.663 	 91.1106 	 
H 	 -1.79409 	 -12.0999 	 91.601 	 
H 	 -3.23774 	 -12.9221 	 90.6988 	 
S 	 -4.05328 	 -11.0358 	 82.9884 	 
C 	 -5.10348 	 -11.7606 	 81.8983 	 
C 	 -5.00689 	 -13.1274 	 81.9596 	 
C 	 -4.02352 	 -13.6044 	 82.8567 	 
C 	 -3.4361 	 -12.5832 	 83.4914 	 
H 	 -5.70011 	 -13.7164 	 81.3465 	 
C 	 -3.85009 	 -15.136 	 83.0498 	 
H 	 -2.88639 	 -15.1577 	 83.6477 	 
H 	 -3.70477 	 -15.6051 	 82.0836 	 
C 	 -4.93277 	 -15.8255 	 83.8769 	 
H 	 -5.89946 	 -15.5631 	 83.4656 	 
H 	 -4.834 	 -15.4186 	 84.8691 	 
C 	 -4.87285 	 -17.3729 	 83.9339 	 
H 	 -4.01092 	 -17.6551 	 84.5519 	 
H 	 -4.61363 	 -17.8512 	 82.9373 	 
H 	 -5.72364 	 -17.8404 	 84.4134 	 
H 	 0.00259009 	 -11.7505 	 87.0597 	 
H 	 -5.75649 	 -11.1698 	 81.3373 	 
