34

S 	 5.62076 	 77.5114 	 42.8608 	 
C 	 5.00754 	 75.873 	 42.5638 	 
C 	 4.95618 	 75.0935 	 43.7042 	 
C 	 5.46643 	 75.7569 	 44.832 	 
C 	 5.81069 	 77.0747 	 44.6046 	 
H 	 5.64613 	 75.2373 	 45.7702 	 
C 	 4.49958 	 73.6332 	 43.7486 	 
H 	 4.55575 	 73.1583 	 44.7698 	 
H 	 5.33085 	 73.1779 	 43.1389 	 
C 	 3.22383 	 73.3285 	 43.0394 	 
H 	 2.38492 	 73.9708 	 43.2933 	 
H 	 3.26974 	 73.536 	 41.9471 	 
C 	 2.74612 	 71.8737 	 43.2591 	 
H 	 1.7976 	 71.6945 	 42.7072 	 
H 	 3.5285 	 71.2866 	 42.8609 	 
H 	 2.54499 	 71.6305 	 44.308 	 
S 	 7.78911 	 78.8443 	 45.3672 	 
C 	 7.84896 	 79.3953 	 46.9813 	 
C 	 6.75537 	 78.9611 	 47.7166 	 
C 	 5.88406 	 78.1314 	 46.9176 	 
C 	 6.34001 	 77.9485 	 45.6248 	 
H 	 6.54472 	 79.3049 	 48.6913 	 
C 	 4.48075 	 77.6991 	 47.3523 	 
H 	 4.40898 	 78.0886 	 48.3295 	 
H 	 4.48305 	 76.6414 	 47.4199 	 
C 	 3.26394 	 78.1994 	 46.5149 	 
H 	 2.29246 	 77.8908 	 46.9588 	 
H 	 3.30588 	 77.7509 	 45.5147 	 
C 	 3.26472 	 79.7305 	 46.5682 	 
H 	 2.50355 	 80.1967 	 45.8318 	 
H 	 4.21654 	 80.1392 	 46.1405 	 
H 	 3.10627 	 80.0982 	 47.6182 	 
H 	 5.05378 	 75.2896 	 41.6385 	 
H 	 8.55216 	 80.1205 	 47.3567 	 
