34

S 	 1.78685 	 78.31 	 46.5462 	 
C 	 2.84665 	 76.8673 	 46.7127 	 
C 	 4.17045 	 77.3087 	 46.5724 	 
C 	 4.26698 	 78.7598 	 46.7583 	 
C 	 3.03974 	 79.411 	 46.8351 	 
H 	 5.12676 	 79.3525 	 47.0406 	 
C 	 5.31219 	 76.3598 	 46.5393 	 
H 	 5.70328 	 76.3279 	 45.5758 	 
H 	 4.9762 	 75.3948 	 46.8079 	 
C 	 6.48393 	 76.7517 	 47.454 	 
H 	 7.24772 	 75.9811 	 47.4924 	 
H 	 6.84318 	 77.7452 	 47.0699 	 
C 	 6.08411 	 77.0779 	 48.8871 	 
H 	 6.95751 	 77.5082 	 49.4331 	 
H 	 5.22794 	 77.7201 	 48.9957 	 
H 	 5.91617 	 76.1407 	 49.4357 	 
S 	 3.26953 	 82.0494 	 46.1821 	 
C 	 2.97579 	 83.2478 	 47.4291 	 
C 	 2.58212 	 82.6217 	 48.6073 	 
C 	 2.3878 	 81.2191 	 48.5273 	 
C 	 2.77205 	 80.7364 	 47.2918 	 
H 	 2.50728 	 83.1947 	 49.542 	 
C 	 2.0241 	 80.3125 	 49.7056 	 
H 	 2.20444 	 79.2795 	 49.4013 	 
H 	 0.881335 	 80.4167 	 49.8135 	 
C 	 2.78195 	 80.6394 	 51.0581 	 
H 	 2.42976 	 79.902 	 51.716 	 
H 	 2.42429 	 81.6537 	 51.3841 	 
C 	 4.31732 	 80.445 	 51.0411 	 
H 	 4.71052 	 80.9461 	 50.1915 	 
H 	 4.75267 	 79.4297 	 51.0406 	 
H 	 4.76409 	 80.9918 	 51.8446 	 
H 	 2.3945 	 75.8725 	 46.5501 	 
H 	 3.06856 	 84.2632 	 47.3355 	 
