34

S 	 69.1984 	 21.7307 	 79.6913 	 
C 	 69.091 	 19.96 	 79.6989 	 
C 	 68.8973 	 19.4158 	 78.4043 	 
C 	 68.6754 	 20.4684 	 77.4429 	 
C 	 68.9195 	 21.7435 	 77.9802 	 
H 	 68.3089 	 20.3245 	 76.4178 	 
C 	 68.7681 	 17.9594 	 78.1138 	 
H 	 68.2175 	 17.8689 	 77.1931 	 
H 	 68.2173 	 17.4788 	 78.9214 	 
C 	 70.1259 	 17.402 	 77.7784 	 
H 	 69.9714 	 16.4631 	 77.2789 	 
H 	 70.5753 	 18.0994 	 77.0911 	 
C 	 71.0537 	 17.0153 	 78.9205 	 
H 	 70.8212 	 16.1114 	 79.4789 	 
H 	 71.9481 	 16.7652 	 78.3916 	 
H 	 71.0703 	 17.8632 	 79.5797 	 
S 	 67.4976 	 23.9729 	 77.2309 	 
C 	 67.9642 	 24.8505 	 75.8281 	 
C 	 69.2314 	 24.5313 	 75.5343 	 
C 	 69.7306 	 23.4366 	 76.2614 	 
C 	 68.8701 	 22.9767 	 77.2055 	 
H 	 69.8661 	 24.9519 	 74.713 	 
C 	 71.0734 	 22.8185 	 75.9353 	 
H 	 71.3986 	 22.1189 	 76.7216 	 
H 	 71.7216 	 23.7043 	 75.8262 	 
C 	 71.1035 	 21.9681 	 74.5996 	 
H 	 70.6714 	 20.9359 	 74.7517 	 
H 	 72.1847 	 21.8955 	 74.4697 	 
C 	 70.4986 	 22.6566 	 73.3278 	 
H 	 70.9237 	 23.5856 	 72.9884 	 
H 	 69.3869 	 22.7648 	 73.4305 	 
H 	 70.5223 	 21.9219 	 72.5265 	 
H 	 69.3 	 19.3245 	 80.5543 	 
H 	 67.3535 	 25.618 	 75.426 	 
