34

S 	 -25.2883 	 52.135 	 65.0138 	 
C 	 -24.3678 	 51.1806 	 63.9253 	 
C 	 -24.676 	 49.8113 	 64.1209 	 
C 	 -25.5405 	 49.6027 	 65.2497 	 
C 	 -25.9688 	 50.7453 	 65.8961 	 
H 	 -25.7534 	 48.6789 	 65.784 	 
C 	 -24.1377 	 48.7781 	 63.197 	 
H 	 -23.1359 	 48.6769 	 63.5138 	 
H 	 -24.2931 	 49.2491 	 62.2421 	 
C 	 -24.6607 	 47.3626 	 63.057 	 
H 	 -23.9593 	 46.7975 	 62.4146 	 
H 	 -24.6405 	 46.9241 	 64.024 	 
C 	 -26.1531 	 47.275 	 62.4727 	 
H 	 -26.1558 	 47.6628 	 61.4251 	 
H 	 -26.569 	 46.2957 	 62.5806 	 
H 	 -26.7829 	 48.0137 	 62.9496 	 
S 	 -25.5844 	 51.4504 	 68.4845 	 
C 	 -26.8704 	 51.1184 	 69.6338 	 
C 	 -27.8918 	 50.4361 	 69.051 	 
C 	 -27.7047 	 50.114 	 67.688 	 
C 	 -26.6027 	 50.7741 	 67.2111 	 
H 	 -28.732 	 50.2605 	 69.7591 	 
C 	 -28.6823 	 49.2656 	 66.9232 	 
H 	 -28.7384 	 49.4478 	 65.8454 	 
H 	 -29.6817 	 49.6307 	 67.1857 	 
C 	 -28.6684 	 47.7242 	 67.1537 	 
H 	 -28.6915 	 47.6975 	 68.2223 	 
H 	 -27.7737 	 47.2449 	 66.8089 	 
C 	 -29.7952 	 46.9563 	 66.4796 	 
H 	 -29.8026 	 45.9137 	 66.7222 	 
H 	 -29.6942 	 46.9886 	 65.3834 	 
H 	 -30.7892 	 47.3147 	 66.8432 	 
H 	 -23.7923 	 51.5594 	 63.1483 	 
H 	 -26.9176 	 51.5837 	 70.6489 	 
