34

S 	 -30.583 	 60.2678 	 117.824 	 
C 	 -32.2145 	 59.6428 	 117.675 	 
C 	 -33.1113 	 60.5859 	 117.107 	 
C 	 -32.3017 	 61.5917 	 116.413 	 
C 	 -30.9636 	 61.6864 	 116.735 	 
H 	 -32.7565 	 62.4153 	 115.702 	 
C 	 -34.6342 	 60.579 	 117.065 	 
H 	 -35.0842 	 61.543 	 117.333 	 
H 	 -35.012 	 59.9321 	 117.908 	 
C 	 -35.2034 	 60.1515 	 115.641 	 
H 	 -36.2633 	 60.2358 	 115.661 	 
H 	 -34.782 	 60.8551 	 114.963 	 
C 	 -34.8072 	 58.7946 	 115.087 	 
H 	 -35.5482 	 58.5923 	 114.319 	 
H 	 -33.8226 	 58.7328 	 114.693 	 
H 	 -35.0898 	 58.0238 	 115.813 	 
S 	 -28.5694 	 62.2241 	 115.39 	 
C 	 -27.9793 	 63.8703 	 115.394 	 
C 	 -28.9206 	 64.745 	 115.834 	 
C 	 -30.0723 	 64.1506 	 116.44 	 
C 	 -30.0372 	 62.7465 	 116.281 	 
H 	 -28.4888 	 65.7457 	 115.841 	 
C 	 -31.1112 	 64.8927 	 117.247 	 
H 	 -31.7497 	 64.076 	 117.639 	 
H 	 -31.716 	 65.5626 	 116.651 	 
C 	 -30.6105 	 65.5505 	 118.518 	 
H 	 -29.7546 	 66.1861 	 118.275 	 
H 	 -30.1695 	 64.8032 	 119.184 	 
C 	 -31.653 	 66.4182 	 119.303 	 
H 	 -32.1446 	 67.0259 	 118.543 	 
H 	 -31.1275 	 67.0303 	 119.993 	 
H 	 -32.3788 	 65.8197 	 119.785 	 
H 	 -32.5934 	 58.8378 	 118.317 	 
H 	 -27.1436 	 64.1369 	 114.811 	 
