34

S 	 42.8478 	 20.13 	 47.5757 	 
C 	 41.5388 	 18.9538 	 47.4919 	 
C 	 40.3719 	 19.4216 	 46.8791 	 
C 	 40.5744 	 20.751 	 46.3707 	 
C 	 41.8323 	 21.3245 	 46.7995 	 
H 	 39.9307 	 21.3807 	 45.9244 	 
C 	 39.0555 	 18.6836 	 46.78 	 
H 	 39.2022 	 17.7008 	 47.2406 	 
H 	 38.9447 	 18.4245 	 45.7647 	 
C 	 37.7433 	 19.1862 	 47.4404 	 
H 	 37.3016 	 20.0302 	 46.9244 	 
H 	 37.0515 	 18.3693 	 47.2788 	 
C 	 37.97 	 19.3217 	 48.984 	 
H 	 38.1446 	 18.3231 	 49.3976 	 
H 	 38.8119 	 20.0227 	 49.2339 	 
H 	 37.0023 	 19.7445 	 49.4446 	 
S 	 44.0687 	 22.8916 	 46.5594 	 
C 	 44.0012 	 24.6224 	 46.1905 	 
C 	 42.6684 	 24.9585 	 46.1109 	 
C 	 41.7441 	 23.9432 	 46.5222 	 
C 	 42.3259 	 22.6798 	 46.672 	 
H 	 42.4237 	 26.0319 	 45.879 	 
C 	 40.2969 	 24.328 	 46.6861 	 
H 	 39.5866 	 23.5414 	 46.3911 	 
H 	 40.1734 	 25.1737 	 45.9586 	 
C 	 39.875 	 24.7653 	 48.0594 	 
H 	 40.5889 	 25.5557 	 48.2677 	 
H 	 39.998 	 23.9399 	 48.7741 	 
C 	 38.3818 	 25.1947 	 47.9536 	 
H 	 38.114 	 25.9399 	 47.178 	 
H 	 38.0053 	 25.473 	 48.9034 	 
H 	 37.847 	 24.2694 	 47.7233 	 
H 	 41.536 	 17.9731 	 48.0335 	 
H 	 44.8591 	 25.1784 	 45.8871 	 
