34

S 	 33.9387 	 2.33351 	 67.1923 	 
C 	 34.2743 	 3.75888 	 66.2559 	 
C 	 33.177 	 4.09405 	 65.5571 	 
C 	 32.1596 	 3.12456 	 65.5569 	 
C 	 32.4297 	 2.05445 	 66.3909 	 
H 	 31.2088 	 3.15319 	 65.058 	 
C 	 33.0672 	 5.30056 	 64.6075 	 
H 	 34.0432 	 5.5639 	 64.2555 	 
H 	 32.7499 	 6.19651 	 65.1854 	 
C 	 32.1254 	 5.17211 	 63.4109 	 
H 	 31.1414 	 4.83811 	 63.7435 	 
H 	 31.9982 	 6.11038 	 62.9971 	 
C 	 32.6968 	 4.31508 	 62.248 	 
H 	 32.9501 	 3.29794 	 62.4993 	 
H 	 32.0142 	 4.3036 	 61.4207 	 
H 	 33.6485 	 4.55283 	 61.8469 	 
S 	 30.973 	 0.479939 	 68.1154 	 
C 	 30.2455 	 -1.06563 	 67.5361 	 
C 	 30.5166 	 -1.23822 	 66.199 	 
C 	 31.2675 	 -0.135646 	 65.6007 	 
C 	 31.6435 	 0.86979 	 66.5542 	 
H 	 30.1966 	 -2.17151 	 65.8659 	 
C 	 31.617 	 -0.0722994 	 64.0745 	 
H 	 32.6899 	 -0.146712 	 63.7601 	 
H 	 31.3752 	 0.939584 	 63.8477 	 
C 	 30.853 	 -0.911319 	 63.0559 	 
H 	 29.807 	 -0.832874 	 63.3725 	 
H 	 31.1522 	 -1.96893 	 63.1019 	 
C 	 31.1138 	 -0.37539 	 61.6366 	 
H 	 32.1061 	 -0.666694 	 61.2371 	 
H 	 31.0847 	 0.702252 	 61.5805 	 
H 	 30.3961 	 -0.728609 	 60.8285 	 
H 	 35.1583 	 4.33097 	 66.3286 	 
H 	 29.786 	 -1.79134 	 68.1776 	 
