34

S 	 -0.787864 	 -25.9414 	 63.1194 	 
C 	 -1.9738 	 -26.1005 	 64.3418 	 
C 	 -3.23973 	 -26.3766 	 63.7606 	 
C 	 -3.20166 	 -26.5164 	 62.296 	 
C 	 -1.92355 	 -26.4577 	 61.8473 	 
H 	 -4.04857 	 -26.7771 	 61.685 	 
C 	 -4.57086 	 -26.3916 	 64.4876 	 
H 	 -4.4759 	 -26.3457 	 65.5924 	 
H 	 -5.04272 	 -27.3818 	 64.2236 	 
C 	 -5.55493 	 -25.232 	 64.004 	 
H 	 -5.14218 	 -24.2792 	 64.3128 	 
H 	 -5.78368 	 -25.221 	 62.9603 	 
C 	 -6.92524 	 -25.3544 	 64.6932 	 
H 	 -7.7475 	 -24.7823 	 64.2671 	 
H 	 -7.3011 	 -26.3789 	 64.3925 	 
H 	 -6.79516 	 -25.4742 	 65.7895 	 
S 	 -0.134436 	 -27.8049 	 60.4382 	 
C 	 -0.254743 	 -27.8607 	 58.6986 	 
C 	 -1.34152 	 -27.15 	 58.2356 	 
C 	 -2.1428 	 -26.7127 	 59.3223 	 
C 	 -1.51819 	 -26.8698 	 60.5452 	 
H 	 -1.63067 	 -26.8312 	 57.2352 	 
C 	 -3.25684 	 -25.7569 	 58.9083 	 
H 	 -4.09029 	 -25.5826 	 59.6362 	 
H 	 -3.74674 	 -26.2682 	 58.0159 	 
C 	 -2.80785 	 -24.3672 	 58.3987 	 
H 	 -3.29733 	 -23.8399 	 57.6115 	 
H 	 -1.92917 	 -24.6096 	 57.8651 	 
C 	 -2.63264 	 -23.2967 	 59.4914 	 
H 	 -1.93025 	 -23.5636 	 60.2475 	 
H 	 -3.55695 	 -23.145 	 59.969 	 
H 	 -2.298 	 -22.3357 	 59.0442 	 
H 	 -1.80563 	 -25.7593 	 65.3526 	 
H 	 0.534874 	 -28.2357 	 58.1123 	 
