34

S 	 -75.5527 	 52.2553 	 140.214 	 
C 	 -73.9213 	 52.9626 	 140.357 	 
C 	 -73.6977 	 53.6381 	 139.161 	 
C 	 -74.7877 	 53.6965 	 138.268 	 
C 	 -75.9297 	 53.0803 	 138.708 	 
H 	 -74.869 	 54.1662 	 137.326 	 
C 	 -72.3288 	 54.312 	 138.855 	 
H 	 -72.0981 	 53.8204 	 137.931 	 
H 	 -71.5741 	 54.07 	 139.644 	 
C 	 -72.3591 	 55.8983 	 138.753 	 
H 	 -73.3047 	 56.2344 	 138.34 	 
H 	 -72.3612 	 56.3267 	 139.76 	 
C 	 -71.2085 	 56.4649 	 137.851 	 
H 	 -70.2024 	 55.956 	 137.777 	 
H 	 -71.4861 	 56.3899 	 136.784 	 
H 	 -71.0379 	 57.5061 	 137.95 	 
S 	 -78.299 	 54.3342 	 138.247 	 
C 	 -79.4374 	 53.5147 	 137.227 	 
C 	 -79.0412 	 52.2688 	 136.877 	 
C 	 -77.7958 	 51.8846 	 137.5 	 
C 	 -77.2321 	 52.9403 	 138.154 	 
H 	 -79.6921 	 51.6679 	 136.253 	 
C 	 -77.302 	 50.4881 	 137.411 	 
H 	 -77.7456 	 49.8773 	 138.195 	 
H 	 -76.3366 	 50.5802 	 137.778 	 
C 	 -77.2534 	 49.784 	 136.028 	 
H 	 -76.7883 	 50.4474 	 135.361 	 
H 	 -78.3186 	 49.7213 	 135.632 	 
C 	 -76.658 	 48.3645 	 135.949 	 
H 	 -75.8272 	 48.3044 	 136.655 	 
H 	 -76.3446 	 48.0152 	 134.996 	 
H 	 -77.4416 	 47.6306 	 136.297 	 
H 	 -73.0843 	 52.7474 	 141.069 	 
H 	 -80.3369 	 53.9496 	 136.811 	 
