34

S 	 -5.50228 	 -8.51561 	 83.1546 	 
C 	 -5.14918 	 -10.2023 	 83.1012 	 
C 	 -5.09885 	 -10.7498 	 84.3823 	 
C 	 -5.23888 	 -9.69968 	 85.4134 	 
C 	 -5.29241 	 -8.42984 	 84.8866 	 
H 	 -5.27232 	 -9.74843 	 86.4973 	 
C 	 -5.06475 	 -12.1983 	 84.7396 	 
H 	 -5.71024 	 -12.6493 	 83.9695 	 
H 	 -5.59326 	 -12.2108 	 85.6666 	 
C 	 -3.64131 	 -12.9008 	 84.9679 	 
H 	 -3.87284 	 -13.9574 	 84.9316 	 
H 	 -3.02175 	 -12.591 	 84.1308 	 
C 	 -2.96297 	 -12.6488 	 86.3315 	 
H 	 -2.08861 	 -13.2871 	 86.4759 	 
H 	 -2.54138 	 -11.6134 	 86.3499 	 
H 	 -3.67769 	 -12.7692 	 87.1401 	 
S 	 -6.72175 	 -6.07727 	 84.993 	 
C 	 -6.59527 	 -5.1831 	 86.4036 	 
C 	 -5.66506 	 -5.61059 	 87.2468 	 
C 	 -4.94577 	 -6.78465 	 86.779 	 
C 	 -5.43396 	 -7.15373 	 85.5779 	 
H 	 -5.51514 	 -5.08459 	 88.2274 	 
C 	 -3.93251 	 -7.62261 	 87.5276 	 
H 	 -3.19706 	 -6.94631 	 87.9273 	 
H 	 -3.35076 	 -8.20499 	 86.859 	 
C 	 -4.47772 	 -8.34145 	 88.7602 	 
H 	 -5.47487 	 -8.74039 	 88.5407 	 
H 	 -4.55779 	 -7.59612 	 89.5676 	 
C 	 -3.45586 	 -9.42306 	 89.244 	 
H 	 -3.29367 	 -10.1867 	 88.4373 	 
H 	 -3.85486 	 -9.94073 	 90.1278 	 
H 	 -2.55071 	 -8.89862 	 89.654 	 
H 	 -5.01742 	 -10.881 	 82.2398 	 
H 	 -7.28571 	 -4.291 	 86.5209 	 
