34

S 	 -32.9532 	 63.345 	 109.75 	 
C 	 -32.6487 	 64.4965 	 108.456 	 
C 	 -31.8243 	 65.5414 	 108.858 	 
C 	 -31.3363 	 65.3539 	 110.203 	 
C 	 -31.7587 	 64.1318 	 110.736 	 
H 	 -30.5926 	 66.0176 	 110.651 	 
C 	 -31.3501 	 66.6945 	 107.942 	 
H 	 -31.3391 	 67.5185 	 108.575 	 
H 	 -32.0543 	 66.9271 	 107.131 	 
C 	 -29.9157 	 66.7087 	 107.387 	 
H 	 -29.6163 	 67.6857 	 107.118 	 
H 	 -29.1445 	 66.316 	 108.065 	 
C 	 -29.7177 	 65.8652 	 106.041 	 
H 	 -28.6679 	 65.7687 	 105.843 	 
H 	 -30.0571 	 64.8514 	 106.148 	 
H 	 -30.2345 	 66.3398 	 105.203 	 
S 	 -32.9856 	 63.2995 	 113.021 	 
C 	 -31.9368 	 62.7353 	 114.363 	 
C 	 -30.6229 	 62.8683 	 114.077 	 
C 	 -30.4116 	 63.4191 	 112.794 	 
C 	 -31.5745 	 63.7279 	 112.069 	 
H 	 -29.9382 	 62.4175 	 114.773 	 
C 	 -29.1062 	 63.3957 	 112.05 	 
H 	 -29.1571 	 63.2231 	 111.018 	 
H 	 -28.6186 	 62.4814 	 112.384 	 
C 	 -28.2772 	 64.6073 	 112.254 	 
H 	 -28.4205 	 64.929 	 113.286 	 
H 	 -28.6483 	 65.3827 	 111.525 	 
C 	 -26.8214 	 64.389 	 112.081 	 
H 	 -26.6308 	 64.3582 	 110.993 	 
H 	 -26.3765 	 63.4761 	 112.447 	 
H 	 -26.3354 	 65.3251 	 112.37 	 
H 	 -32.8093 	 64.341 	 107.431 	 
H 	 -32.3883 	 62.3362 	 115.232 	 
