34

S 	 -24.3026 	 63.0119 	 105.525 	 
C 	 -26.0602 	 62.8932 	 105.331 	 
C 	 -26.6364 	 62.3945 	 106.488 	 
C 	 -25.6383 	 62.078 	 107.512 	 
C 	 -24.3538 	 62.4064 	 107.149 	 
H 	 -25.8596 	 61.6831 	 108.502 	 
C 	 -28.1186 	 62.2536 	 106.704 	 
H 	 -28.3892 	 62.8765 	 107.678 	 
H 	 -28.3742 	 61.2463 	 106.994 	 
C 	 -29.1569 	 62.7937 	 105.641 	 
H 	 -30.1322 	 62.8778 	 106.138 	 
H 	 -28.7793 	 63.7569 	 105.379 	 
C 	 -29.3302 	 61.8483 	 104.462 	 
H 	 -29.6074 	 60.9374 	 104.911 	 
H 	 -30.2216 	 62.1933 	 103.846 	 
H 	 -28.4834 	 61.5805 	 103.774 	 
S 	 -23.0165 	 63.4314 	 109.333 	 
C 	 -21.4014 	 62.7992 	 109.78 	 
C 	 -21.1344 	 61.7248 	 108.973 	 
C 	 -22.1082 	 61.4439 	 107.961 	 
C 	 -23.143 	 62.3663 	 107.918 	 
H 	 -20.1944 	 61.1646 	 109 	 
C 	 -22.0575 	 60.2731 	 106.951 	 
H 	 -21.0342 	 60.1747 	 106.616 	 
H 	 -22.5119 	 60.5835 	 106.083 	 
C 	 -22.6366 	 58.9224 	 107.316 	 
H 	 -22.1848 	 58.4417 	 108.267 	 
H 	 -22.3678 	 58.3018 	 106.452 	 
C 	 -24.1191 	 59.0709 	 107.48 	 
H 	 -24.6602 	 58.154 	 107.782 	 
H 	 -24.6261 	 59.525 	 106.601 	 
H 	 -24.3668 	 59.7268 	 108.33 	 
H 	 -26.5393 	 63.2199 	 104.468 	 
H 	 -20.8124 	 63.063 	 110.623 	 
