34

S 	 28.0326 	 -11.9998 	 74.2654 	 
C 	 28.0517 	 -12.1527 	 72.5455 	 
C 	 26.8313 	 -11.7436 	 72.0068 	 
C 	 26.0204 	 -11.2099 	 73.053 	 
C 	 26.4693 	 -11.2966 	 74.3507 	 
H 	 24.9209 	 -10.7938 	 72.9632 	 
C 	 26.418 	 -11.7286 	 70.5529 	 
H 	 26.8327 	 -10.9047 	 70.0267 	 
H 	 25.3401 	 -11.5755 	 70.5835 	 
C 	 26.8867 	 -12.8961 	 69.6764 	 
H 	 27.9927 	 -12.9634 	 69.7266 	 
H 	 26.4296 	 -13.7478 	 70.1302 	 
C 	 26.4251 	 -12.6791 	 68.2974 	 
H 	 25.3949 	 -12.5075 	 68.1221 	 
H 	 26.9463 	 -11.8995 	 67.7997 	 
H 	 26.6965 	 -13.597 	 67.7387 	 
S 	 24.1613 	 -11.4949 	 75.722 	 
C 	 23.8483 	 -10.7976 	 77.2717 	 
C 	 24.976 	 -10.0546 	 77.6175 	 
C 	 26.0793 	 -10.0421 	 76.6547 	 
C 	 25.7933 	 -10.8374 	 75.5522 	 
H 	 24.9926 	 -9.49935 	 78.4771 	 
C 	 27.4582 	 -9.37558 	 76.8527 	 
H 	 28.1746 	 -10.1956 	 76.677 	 
H 	 27.5401 	 -9.02458 	 77.8789 	 
C 	 27.7677 	 -8.2728 	 75.8278 	 
H 	 27.1228 	 -7.38261 	 75.9578 	 
H 	 27.4699 	 -8.58077 	 74.7838 	 
C 	 29.2826 	 -7.83915 	 75.7538 	 
H 	 29.6811 	 -7.73641 	 76.8175 	 
H 	 29.4828 	 -6.86245 	 75.3311 	 
H 	 29.8728 	 -8.53689 	 75.1705 	 
H 	 28.7678 	 -12.658 	 71.8509 	 
H 	 22.9535 	 -10.9988 	 77.8566 	 
