34

S 	 1.07389 	 76.1026 	 47.19 	 
C 	 1.1125 	 76.2034 	 48.9211 	 
C 	 0.324969 	 75.2097 	 49.4991 	 
C 	 -0.32269 	 74.4269 	 48.4882 	 
C 	 0.0744609 	 74.6788 	 47.224 	 
H 	 -1.03925 	 73.638 	 48.7502 	 
C 	 0.100341 	 75.0354 	 50.9605 	 
H 	 -0.71311 	 74.4413 	 51.1815 	 
H 	 -0.166595 	 75.9674 	 51.3361 	 
C 	 1.20428 	 74.3573 	 51.7868 	 
H 	 0.808531 	 73.81 	 52.6166 	 
H 	 1.66139 	 73.6285 	 51.0906 	 
C 	 2.23685 	 75.3325 	 52.3347 	 
H 	 2.34603 	 76.2724 	 51.8681 	 
H 	 2.13508 	 75.5465 	 53.3869 	 
H 	 3.23837 	 74.9078 	 52.2223 	 
S 	 -1.02684 	 75.2875 	 44.8104 	 
C 	 -1.53078 	 73.9378 	 43.7832 	 
C 	 -1.39716 	 72.6978 	 44.3801 	 
C 	 -0.983613 	 72.8156 	 45.7418 	 
C 	 -0.556238 	 74.1273 	 46.0236 	 
H 	 -1.71903 	 71.8359 	 43.8638 	 
C 	 -0.675234 	 71.6137 	 46.4748 	 
H 	 -1.22904 	 70.6946 	 46.0314 	 
H 	 -1.16354 	 71.7376 	 47.4986 	 
C 	 0.770995 	 71.2374 	 46.5963 	 
H 	 0.810958 	 70.3794 	 47.2798 	 
H 	 1.33738 	 72.0095 	 47.1294 	 
C 	 1.47261 	 70.872 	 45.2568 	 
H 	 1.5444 	 71.7347 	 44.664 	 
H 	 1.03804 	 70.0532 	 44.6719 	 
H 	 2.53681 	 70.6412 	 45.496 	 
H 	 1.67791 	 76.9204 	 49.5391 	 
H 	 -1.81749 	 74.0454 	 42.7235 	 
