34

S 	 8.58938 	 3.78518 	 86.361 	 
C 	 9.37851 	 4.11732 	 87.8999 	 
C 	 10.749 	 3.9308 	 87.8531 	 
C 	 11.1091 	 3.76586 	 86.4418 	 
C 	 10.104 	 3.61196 	 85.5689 	 
H 	 12.0986 	 3.84673 	 86.0396 	 
C 	 11.842 	 4.29773 	 88.8825 	 
H 	 11.4615 	 3.95728 	 89.7911 	 
H 	 11.9742 	 5.32506 	 88.8388 	 
C 	 13.146 	 3.38186 	 88.7312 	 
H 	 13.686 	 3.52665 	 87.7648 	 
H 	 13.8678 	 3.68094 	 89.4576 	 
C 	 12.8835 	 1.82858 	 88.843 	 
H 	 12.4997 	 1.45245 	 89.8345 	 
H 	 12.3755 	 1.38879 	 87.968 	 
H 	 13.8058 	 1.25842 	 88.7159 	 
S 	 9.25628 	 4.56658 	 83.2843 	 
C 	 9.91011 	 4.11205 	 81.7392 	 
C 	 10.8923 	 3.20765 	 81.8919 	 
C 	 11.1378 	 2.80997 	 83.2812 	 
C 	 10.2556 	 3.47637 	 84.1213 	 
H 	 11.3835 	 2.81406 	 81.0222 	 
C 	 12.2389 	 1.93303 	 83.7031 	 
H 	 12.6755 	 2.46437 	 84.511 	 
H 	 12.9468 	 1.95296 	 82.9467 	 
C 	 11.7519 	 0.495401 	 83.9948 	 
H 	 11.362 	 0.484399 	 85.0155 	 
H 	 12.6414 	 -0.0473679 	 84.2666 	 
C 	 10.9185 	 -0.155455 	 82.8983 	 
H 	 9.85623 	 0.236738 	 82.8295 	 
H 	 10.9553 	 -1.23105 	 83.0666 	 
H 	 11.2882 	 -0.106388 	 81.8897 	 
H 	 8.85123 	 4.32661 	 88.8544 	 
H 	 9.52356 	 4.52516 	 80.7586 	 
