34

S 	 -70.9783 	 57.2536 	 122.654 	 
C 	 -71.3472 	 58.9475 	 122.206 	 
C 	 -71.6844 	 59.6746 	 123.301 	 
C 	 -71.8779 	 58.8177 	 124.473 	 
C 	 -71.4916 	 57.5083 	 124.299 	 
H 	 -72.3047 	 59.1296 	 125.391 	 
C 	 -71.9057 	 61.1612 	 123.476 	 
H 	 -71.24 	 61.6818 	 122.85 	 
H 	 -71.607 	 61.4126 	 124.468 	 
C 	 -73.2987 	 61.6008 	 123.136 	 
H 	 -73.6031 	 61.2395 	 122.133 	 
H 	 -74.0403 	 61.2454 	 123.893 	 
C 	 -73.5302 	 63.1333 	 123.061 	 
H 	 -72.9066 	 63.73 	 122.424 	 
H 	 -74.5563 	 63.3804 	 122.67 	 
H 	 -73.5069 	 63.6069 	 123.996 	 
S 	 -72.6333 	 55.6683 	 125.978 	 
C 	 -71.4982 	 54.7532 	 126.881 	 
C 	 -70.1542 	 55.0364 	 126.776 	 
C 	 -69.9495 	 56.0326 	 125.801 	 
C 	 -71.2316 	 56.4932 	 125.277 	 
H 	 -69.2918 	 54.5412 	 127.236 	 
C 	 -68.6066 	 56.7209 	 125.52 	 
H 	 -68.7314 	 57.7734 	 125.402 	 
H 	 -68.3919 	 56.5142 	 124.469 	 
C 	 -67.4595 	 56.2784 	 126.448 	 
H 	 -67.2903 	 55.232 	 126.403 	 
H 	 -67.686 	 56.4955 	 127.52 	 
C 	 -66.1104 	 56.9932 	 126.109 	 
H 	 -66.265 	 58.0122 	 125.914 	 
H 	 -65.7232 	 56.4301 	 125.184 	 
H 	 -65.3197 	 56.88 	 126.842 	 
H 	 -71.1433 	 59.3741 	 121.247 	 
H 	 -71.911 	 54.0339 	 127.634 	 
