34

S 	 -34.3692 	 74.5204 	 167.446 	 
C 	 -33.9476 	 74.7661 	 165.778 	 
C 	 -34.9894 	 75.26 	 165.037 	 
C 	 -36.1303 	 75.6013 	 165.834 	 
C 	 -35.9814 	 75.055 	 167.111 	 
H 	 -36.9732 	 76.2368 	 165.51 	 
C 	 -34.8322 	 75.5866 	 163.548 	 
H 	 -35.7997 	 75.8277 	 163.225 	 
H 	 -34.5888 	 74.6372 	 163.11 	 
C 	 -33.8613 	 76.6526 	 163.23 	 
H 	 -34.0522 	 77.6434 	 163.666 	 
H 	 -32.9109 	 76.3235 	 163.574 	 
C 	 -33.7272 	 76.8299 	 161.704 	 
H 	 -32.9275 	 77.421 	 161.362 	 
H 	 -33.6551 	 75.7924 	 161.258 	 
H 	 -34.5633 	 77.335 	 161.359 	 
S 	 -36.4771 	 76.0486 	 169.656 	 
C 	 -37.9173 	 75.6363 	 170.515 	 
C 	 -38.7839 	 74.903 	 169.748 	 
C 	 -38.272 	 74.7424 	 168.382 	 
C 	 -36.9546 	 75.1875 	 168.187 	 
H 	 -39.6381 	 74.5621 	 170.144 	 
C 	 -39.0201 	 73.8762 	 167.411 	 
H 	 -39.4394 	 73.0179 	 167.918 	 
H 	 -38.2831 	 73.4324 	 166.705 	 
C 	 -40.0368 	 74.5345 	 166.568 	 
H 	 -40.5388 	 73.8351 	 165.83 	 
H 	 -39.4296 	 75.262 	 165.943 	 
C 	 -41.1305 	 75.2846 	 167.276 	 
H 	 -40.8131 	 75.9803 	 168.062 	 
H 	 -41.6582 	 74.5106 	 167.795 	 
H 	 -41.795 	 75.7254 	 166.485 	 
H 	 -32.9876 	 74.6 	 165.444 	 
H 	 -38.013 	 75.8028 	 171.543 	 
