34

S 	 -13.3722 	 34.6745 	 38.2029 	 
C 	 -13.3844 	 36.1795 	 39.1247 	 
C 	 -13.4172 	 37.2578 	 38.2038 	 
C 	 -13.6901 	 36.8105 	 36.8934 	 
C 	 -13.8301 	 35.4507 	 36.7402 	 
H 	 -13.7737 	 37.4042 	 36.037 	 
C 	 -13.1746 	 38.6828 	 38.5573 	 
H 	 -12.3636 	 39.0835 	 38.0342 	 
H 	 -12.6696 	 38.6442 	 39.5474 	 
C 	 -14.3446 	 39.6914 	 38.5537 	 
H 	 -15.1382 	 39.6223 	 39.2731 	 
H 	 -13.9426 	 40.6726 	 38.5916 	 
C 	 -15.1307 	 39.6028 	 37.1743 	 
H 	 -15.9255 	 40.2817 	 36.9737 	 
H 	 -14.4031 	 39.6873 	 36.3783 	 
H 	 -15.6518 	 38.6469 	 37.0557 	 
S 	 -13.5637 	 32.9902 	 35.5362 	 
C 	 -13.9447 	 32.7773 	 33.8719 	 
C 	 -14.3709 	 33.9479 	 33.3168 	 
C 	 -14.3918 	 35.0736 	 34.2362 	 
C 	 -13.969 	 34.6877 	 35.467 	 
H 	 -14.7605 	 34.0113 	 32.4103 	 
C 	 -14.8575 	 36.4857 	 33.8499 	 
H 	 -15.4976 	 36.9058 	 34.6404 	 
H 	 -15.5239 	 36.4029 	 33.0094 	 
C 	 -13.7206 	 37.405 	 33.3538 	 
H 	 -13.4279 	 36.9151 	 32.4068 	 
H 	 -12.8593 	 37.4519 	 34.0744 	 
C 	 -14.0886 	 38.8202 	 32.9926 	 
H 	 -13.2017 	 39.2952 	 32.4686 	 
H 	 -14.1672 	 39.4362 	 33.9253 	 
H 	 -14.836 	 39.0791 	 32.2481 	 
H 	 -13.2017 	 36.364 	 40.2103 	 
H 	 -13.9114 	 31.8346 	 33.4027 	 
