34

S 	 -114.344 	 53.653 	 113.268 	 
C 	 -112.629 	 53.2243 	 113.135 	 
C 	 -111.9 	 54.0999 	 112.348 	 
C 	 -112.704 	 55.1644 	 111.808 	 
C 	 -114.022 	 55.0958 	 112.28 	 
H 	 -112.268 	 55.8648 	 111.085 	 
C 	 -110.433 	 54.0033 	 111.987 	 
H 	 -109.81 	 53.9963 	 112.836 	 
H 	 -110.154 	 54.966 	 111.539 	 
C 	 -110.105 	 52.7633 	 111.124 	 
H 	 -109.037 	 52.814 	 110.97 	 
H 	 -110.386 	 51.8355 	 111.7 	 
C 	 -110.72 	 52.8133 	 109.684 	 
H 	 -111.771 	 52.9536 	 109.72 	 
H 	 -110.381 	 53.6387 	 109.08 	 
H 	 -110.519 	 51.9269 	 109.096 	 
S 	 -116.06 	 55.7851 	 110.549 	 
C 	 -117.266 	 56.9342 	 111.075 	 
C 	 -116.961 	 57.4564 	 112.304 	 
C 	 -115.767 	 56.8692 	 112.878 	 
C 	 -115.101 	 56.0452 	 112.003 	 
H 	 -117.658 	 58.1215 	 112.826 	 
C 	 -115.338 	 57.1215 	 114.338 	 
H 	 -115.5 	 56.1613 	 114.883 	 
H 	 -116.106 	 57.7858 	 114.778 	 
C 	 -113.932 	 57.687 	 114.496 	 
H 	 -113.191 	 56.9799 	 113.958 	 
H 	 -113.669 	 57.8055 	 115.512 	 
C 	 -113.695 	 59.1355 	 113.856 	 
H 	 -113.951 	 59.0655 	 112.756 	 
H 	 -112.721 	 59.4552 	 114 	 
H 	 -114.365 	 59.8537 	 114.327 	 
H 	 -112.267 	 52.2515 	 113.464 	 
H 	 -118.245 	 57.0764 	 110.737 	 
