34

S 	 -96.6275 	 44.3891 	 124.691 	 
C 	 -95.2388 	 43.3083 	 124.331 	 
C 	 -95.6777 	 41.9903 	 124.333 	 
C 	 -97.0447 	 41.814 	 124.618 	 
C 	 -97.7121 	 43.0282 	 124.844 	 
H 	 -97.699 	 40.9431 	 124.664 	 
C 	 -94.6994 	 40.8566 	 124.042 	 
H 	 -95.2948 	 39.8963 	 124.163 	 
H 	 -94.1023 	 40.9129 	 124.965 	 
C 	 -93.9008 	 40.9728 	 122.749 	 
H 	 -94.5982 	 40.9422 	 121.941 	 
H 	 -93.2577 	 41.853 	 122.745 	 
C 	 -93.0657 	 39.7525 	 122.498 	 
H 	 -92.5112 	 39.8573 	 121.592 	 
H 	 -92.3277 	 39.6986 	 123.28 	 
H 	 -93.706 	 38.883 	 122.543 	 
S 	 -99.7242 	 42.4363 	 126.705 	 
C 	 -101.433 	 42.8354 	 126.254 	 
C 	 -101.478 	 43.426 	 125.021 	 
C 	 -100.207 	 43.5232 	 124.428 	 
C 	 -99.1175 	 43.0518 	 125.172 	 
H 	 -102.429 	 43.5389 	 124.489 	 
C 	 -100.125 	 44.015 	 123.035 	 
H 	 -99.0902 	 44.2319 	 122.78 	 
H 	 -100.768 	 44.946 	 122.998 	 
C 	 -100.726 	 43.0491 	 121.991 	 
H 	 -101.761 	 42.9259 	 122.365 	 
H 	 -100.306 	 41.9994 	 121.958 	 
C 	 -100.915 	 43.6401 	 120.643 	 
H 	 -99.9755 	 43.4984 	 120.121 	 
H 	 -101.264 	 44.6207 	 120.826 	 
H 	 -101.721 	 43.0857 	 120.11 	 
H 	 -94.2822 	 43.5883 	 123.941 	 
H 	 -102.31 	 42.8806 	 126.971 	 
