34

S 	 -47.2295 	 63.7304 	 140.109 	 
C 	 -45.576 	 63.4383 	 140.622 	 
C 	 -45.0194 	 64.4882 	 141.267 	 
C 	 -45.9023 	 65.5876 	 141.3 	 
C 	 -47.1278 	 65.3615 	 140.8 	 
H 	 -45.6511 	 66.4748 	 141.79 	 
C 	 -43.6945 	 64.5806 	 141.867 	 
H 	 -43.4861 	 65.5761 	 142.212 	 
H 	 -42.9295 	 64.4845 	 141.054 	 
C 	 -43.4631 	 63.5033 	 142.968 	 
H 	 -44.2478 	 63.475 	 143.671 	 
H 	 -43.3893 	 62.5592 	 142.403 	 
C 	 -42.2197 	 63.7189 	 143.761 	 
H 	 -41.3295 	 63.6482 	 143.231 	 
H 	 -42.139 	 64.7533 	 144.067 	 
H 	 -42.1095 	 63.004 	 144.576 	 
S 	 -49.7279 	 65.8795 	 140.116 	 
C 	 -50.5595 	 67.3289 	 140.659 	 
C 	 -49.6496 	 68.2006 	 141.189 	 
C 	 -48.3464 	 67.5441 	 141.458 	 
C 	 -48.1767 	 66.3597 	 140.809 	 
H 	 -49.8645 	 69.145 	 141.631 	 
C 	 -47.3916 	 68.0979 	 142.468 	 
H 	 -46.411 	 68.3319 	 142.014 	 
H 	 -47.0879 	 67.3721 	 143.237 	 
C 	 -47.8245 	 69.3001 	 143.294 	 
H 	 -48.8758 	 69.2422 	 143.589 	 
H 	 -47.8324 	 70.1665 	 142.632 	 
C 	 -46.7587 	 69.6905 	 144.364 	 
H 	 -46.799 	 68.9375 	 145.195 	 
H 	 -47.0428 	 70.6714 	 144.783 	 
H 	 -45.769 	 69.7091 	 143.973 	 
H 	 -44.9784 	 62.5938 	 140.277 	 
H 	 -51.6085 	 67.4552 	 140.575 	 
