34

S 	 -0.541255 	 -25.1514 	 58.3479 	 
C 	 -1.61422 	 -25.2121 	 59.7737 	 
C 	 -0.879974 	 -25.3919 	 60.9061 	 
C 	 0.518641 	 -25.4371 	 60.6922 	 
C 	 0.894402 	 -25.3128 	 59.3626 	 
H 	 1.24285 	 -25.7092 	 61.4372 	 
C 	 -1.43476 	 -25.5652 	 62.3231 	 
H 	 -1.71153 	 -24.54 	 62.6942 	 
H 	 -0.563477 	 -25.8646 	 62.9377 	 
C 	 -2.62999 	 -26.4874 	 62.4491 	 
H 	 -2.9958 	 -26.4143 	 63.447 	 
H 	 -3.35033 	 -26.1249 	 61.7709 	 
C 	 -2.2073 	 -27.9752 	 62.1633 	 
H 	 -3.10311 	 -28.596 	 62.1694 	 
H 	 -1.70192 	 -27.9753 	 61.1645 	 
H 	 -1.53452 	 -28.3806 	 62.9675 	 
S 	 2.43642 	 -26.6355 	 57.4581 	 
C 	 4.16117 	 -26.2754 	 57.3173 	 
C 	 4.60424 	 -25.4857 	 58.3861 	 
C 	 3.51091 	 -25.0107 	 59.216 	 
C 	 2.26802 	 -25.5936 	 58.8776 	 
H 	 5.59475 	 -25.1321 	 58.5352 	 
C 	 3.67435 	 -23.9186 	 60.2605 	 
H 	 2.73292 	 -23.5733 	 60.5856 	 
H 	 4.12615 	 -23.1088 	 59.6612 	 
C 	 4.5431 	 -24.2209 	 61.4273 	 
H 	 4.82517 	 -23.3122 	 61.9856 	 
H 	 5.48154 	 -24.7404 	 61.0815 	 
C 	 3.95456 	 -25.1705 	 62.609 	 
H 	 3.69819 	 -26.108 	 62.174 	 
H 	 3.09685 	 -24.6953 	 63.1585 	 
H 	 4.71844 	 -25.284 	 63.3368 	 
H 	 -2.69244 	 -25.1564 	 59.6593 	 
H 	 4.84902 	 -26.5358 	 56.5036 	 
