34

S 	 8.01841 	 22.4914 	 41.5005 	 
C 	 6.57294 	 23.5763 	 41.2411 	 
C 	 6.94292 	 24.9037 	 41.2719 	 
C 	 8.33904 	 25.0876 	 41.4418 	 
C 	 9.04235 	 23.9069 	 41.5332 	 
H 	 8.91072 	 26.0025 	 41.6239 	 
C 	 5.90781 	 26.0732 	 41.3029 	 
H 	 5.54022 	 26.1866 	 42.2974 	 
H 	 5.05088 	 25.7894 	 40.7495 	 
C 	 6.25358 	 27.3889 	 40.6448 	 
H 	 6.60883 	 28.0503 	 41.3838 	 
H 	 7.08425 	 27.2805 	 39.9711 	 
C 	 4.97546 	 28.0593 	 40.0604 	 
H 	 4.59883 	 27.3089 	 39.3686 	 
H 	 4.31683 	 28.4907 	 40.8269 	 
H 	 5.33368 	 28.8475 	 39.3764 	 
S 	 11.3264 	 23.9074 	 43.1407 	 
C 	 12.8563 	 23.7126 	 42.2947 	 
C 	 12.6201 	 23.6426 	 40.9644 	 
C 	 11.2753 	 23.7585 	 40.5139 	 
C 	 10.4593 	 23.6952 	 41.5787 	 
H 	 13.4798 	 23.5724 	 40.3571 	 
C 	 10.91 	 23.8292 	 39.0703 	 
H 	 10.0741 	 23.0098 	 39.009 	 
H 	 11.736 	 23.5663 	 38.4134 	 
C 	 10.2511 	 25.2441 	 38.5933 	 
H 	 10.9708 	 26.0579 	 38.7058 	 
H 	 9.30936 	 25.5283 	 39.0795 	 
C 	 9.80947 	 25.1361 	 37.1204 	 
H 	 9.06694 	 24.4665 	 36.8514 	 
H 	 10.768 	 24.8977 	 36.6361 	 
H 	 9.26795 	 26.0306 	 36.7848 	 
H 	 5.57239 	 23.2259 	 41.1837 	 
H 	 13.8389 	 23.7269 	 42.6773 	 
