34

S 	 56.6718 	 15.2578 	 78.7795 	 
C 	 57.7545 	 16.1737 	 77.658 	 
C 	 58.7568 	 15.3562 	 77.2324 	 
C 	 58.6441 	 14.0069 	 77.6835 	 
C 	 57.4921 	 13.7725 	 78.4335 	 
H 	 59.3539 	 13.1492 	 77.547 	 
C 	 59.8942 	 15.7691 	 76.4455 	 
H 	 59.5811 	 16.7666 	 75.9994 	 
H 	 59.9416 	 14.9894 	 75.7534 	 
C 	 61.2209 	 16.0279 	 77.2668 	 
H 	 61.2166 	 15.4166 	 78.1349 	 
H 	 62.0225 	 15.7413 	 76.6987 	 
C 	 61.3298 	 17.4982 	 77.6824 	 
H 	 60.5437 	 17.7627 	 78.3244 	 
H 	 62.3205 	 17.5817 	 78.1799 	 
H 	 61.507 	 18.2036 	 76.8446 	 
S 	 57.0325 	 12.1966 	 80.7091 	 
C 	 56.879 	 10.4539 	 80.5825 	 
C 	 56.7569 	 10.1399 	 79.274 	 
C 	 56.8111 	 11.25 	 78.4133 	 
C 	 57.0474 	 12.4444 	 79.0124 	 
H 	 56.6011 	 9.10664 	 79.1156 	 
C 	 56.7141 	 11.0138 	 76.9481 	 
H 	 56.0402 	 10.1013 	 76.8491 	 
H 	 57.7362 	 10.8125 	 76.6208 	 
C 	 56.0207 	 12.1263 	 76.1806 	 
H 	 56.6717 	 13.0773 	 75.9955 	 
H 	 55.0882 	 12.3969 	 76.7317 	 
C 	 55.4997 	 11.556 	 74.8232 	 
H 	 56.2458 	 11.2639 	 74.1047 	 
H 	 54.7706 	 12.3086 	 74.3428 	 
H 	 54.9314 	 10.6314 	 74.9132 	 
H 	 57.681 	 17.1832 	 77.311 	 
H 	 56.7936 	 9.82961 	 81.4191 	 
