34

S 	 9.37822 	 -11.2989 	 91.6634 	 
C 	 9.43198 	 -9.61995 	 92.1172 	 
C 	 8.41956 	 -8.94573 	 91.4222 	 
C 	 7.53822 	 -9.78346 	 90.7649 	 
C 	 7.87143 	 -11.111 	 90.8421 	 
H 	 6.65533 	 -9.55458 	 90.2071 	 
C 	 8.28523 	 -7.40129 	 91.3979 	 
H 	 8.82837 	 -6.99396 	 90.5696 	 
H 	 8.76911 	 -7.04644 	 92.274 	 
C 	 6.83271 	 -6.78196 	 91.554 	 
H 	 6.85837 	 -5.7444 	 91.2816 	 
H 	 6.15603 	 -7.17107 	 90.7604 	 
C 	 6.24621 	 -7.04732 	 92.9348 	 
H 	 5.45123 	 -6.37746 	 93.2634 	 
H 	 6.02597 	 -8.08803 	 93.1503 	 
H 	 7.02445 	 -6.75904 	 93.6965 	 
S 	 7.18724 	 -12.4127 	 88.6198 	 
C 	 6.14357 	 -13.837 	 88.7649 	 
C 	 5.93696 	 -14.2274 	 90.0815 	 
C 	 6.59245 	 -13.3753 	 91.0179 	 
C 	 7.12611 	 -12.2535 	 90.3719 	 
H 	 5.40682 	 -15.1074 	 90.3646 	 
C 	 6.49113 	 -13.5623 	 92.488 	 
H 	 7.44513 	 -13.6478 	 92.9518 	 
H 	 6.1261 	 -14.5062 	 92.7358 	 
C 	 5.44381 	 -12.591 	 93.2429 	 
H 	 4.89468 	 -13.123 	 94.0805 	 
H 	 4.60725 	 -12.44 	 92.5274 	 
C 	 6.11906 	 -11.37 	 93.8906 	 
H 	 5.43493 	 -10.5988 	 94.1383 	 
H 	 6.88309 	 -10.9233 	 93.3147 	 
H 	 6.59956 	 -11.7914 	 94.8027 	 
H 	 10.2637 	 -9.04895 	 92.5559 	 
H 	 5.70175 	 -14.251 	 87.8519 	 
