34

S 	 0.617077 	 36.0582 	 38.1499 	 
C 	 2.05351 	 35.4599 	 37.2972 	 
C 	 1.76314 	 34.4112 	 36.3957 	 
C 	 0.384061 	 34.0689 	 36.4765 	 
C 	 -0.365211 	 34.7997 	 37.3687 	 
H 	 -0.121113 	 33.3417 	 35.8845 	 
C 	 2.70799 	 33.8681 	 35.3896 	 
H 	 3.57341 	 34.511 	 35.5157 	 
H 	 2.26901 	 34.0905 	 34.428 	 
C 	 3.09813 	 32.3755 	 35.3743 	 
H 	 3.52875 	 32.0163 	 36.2666 	 
H 	 2.18364 	 31.823 	 35.1595 	 
C 	 4.02523 	 31.8968 	 34.3158 	 
H 	 4.53293 	 30.9784 	 34.4221 	 
H 	 3.5756 	 32.0379 	 33.3165 	 
H 	 4.8614 	 32.6386 	 34.2835 	 
S 	 -2.72988 	 36.1214 	 37.4299 	 
C 	 -4.2506 	 35.2532 	 37.5719 	 
C 	 -3.94481 	 33.9615 	 38.0097 	 
C 	 -2.59284 	 33.564 	 37.8795 	 
C 	 -1.79272 	 34.644 	 37.5678 	 
H 	 -4.82116 	 33.3784 	 38.3015 	 
C 	 -2.15911 	 32.1235 	 38.2566 	 
H 	 -1.7308 	 32.0329 	 39.1787 	 
H 	 -1.33054 	 31.8689 	 37.6308 	 
C 	 -3.33781 	 31.1601 	 38.1838 	 
H 	 -3.86385 	 31.1273 	 37.1589 	 
H 	 -4.15905 	 31.4214 	 38.9393 	 
C 	 -2.9282 	 29.7382 	 38.5922 	 
H 	 -2.09881 	 29.3328 	 38.186 	 
H 	 -3.77801 	 29.1481 	 38.4312 	 
H 	 -2.7116 	 29.5342 	 39.6595 	 
H 	 3.00968 	 36.0043 	 37.2219 	 
H 	 -5.18276 	 35.7578 	 37.6738 	 
