34

S 	 -16.1259 	 -9.81398 	 89.0218 	 
C 	 -16.0975 	 -10.5223 	 90.5661 	 
C 	 -14.8242 	 -10.9434 	 90.9192 	 
C 	 -13.8402 	 -10.6185 	 89.8767 	 
C 	 -14.4167 	 -10.0056 	 88.7763 	 
H 	 -12.7529 	 -10.8387 	 89.8351 	 
C 	 -14.4429 	 -11.5832 	 92.1704 	 
H 	 -15.3472 	 -11.9929 	 92.5621 	 
H 	 -13.9099 	 -10.9895 	 92.9623 	 
C 	 -13.493 	 -12.8458 	 92.0767 	 
H 	 -13.9524 	 -13.7095 	 91.5128 	 
H 	 -12.5846 	 -12.5051 	 91.5678 	 
C 	 -13.1119 	 -13.5508 	 93.4462 	 
H 	 -12.2601 	 -13.0482 	 93.924 	 
H 	 -13.7999 	 -13.6698 	 94.2335 	 
H 	 -12.7569 	 -14.5555 	 93.4075 	 
S 	 -12.7684 	 -8.16065 	 87.3591 	 
C 	 -12.3892 	 -8.59219 	 85.8202 	 
C 	 -13.1347 	 -9.58492 	 85.2706 	 
C 	 -14.0393 	 -10.1974 	 86.2194 	 
C 	 -13.8195 	 -9.63762 	 87.4827 	 
H 	 -13.0465 	 -9.88223 	 84.2268 	 
C 	 -15.0549 	 -11.3126 	 85.8674 	 
H 	 -15.3434 	 -11.6884 	 86.8357 	 
H 	 -14.3652 	 -11.9922 	 85.2968 	 
C 	 -16.1654 	 -10.8312 	 84.8715 	 
H 	 -15.7756 	 -10.5235 	 84.0205 	 
H 	 -16.7649 	 -10.0064 	 85.2525 	 
C 	 -17.0923 	 -11.9797 	 84.4983 	 
H 	 -17.7484 	 -11.6715 	 83.606 	 
H 	 -17.654 	 -12.2233 	 85.3616 	 
H 	 -16.5786 	 -12.9118 	 84.1466 	 
H 	 -16.9801 	 -10.5628 	 91.1988 	 
H 	 -11.5911 	 -8.03969 	 85.2257 	 
