34

S 	 -51.4075 	 8.50338 	 91.6018 	 
C 	 -50.3636 	 9.58901 	 92.4773 	 
C 	 -49.7378 	 10.4804 	 91.6329 	 
C 	 -50.0357 	 10.2518 	 90.2566 	 
C 	 -51.018 	 9.28921 	 90.0733 	 
H 	 -49.6657 	 10.7527 	 89.3151 	 
C 	 -48.6571 	 11.5086 	 92.0921 	 
H 	 -48.8751 	 12.1031 	 92.9541 	 
H 	 -48.7201 	 12.3861 	 91.4111 	 
C 	 -47.2484 	 10.9142 	 92.3379 	 
H 	 -46.6827 	 11.6328 	 92.8831 	 
H 	 -47.1798 	 10.0594 	 93.0501 	 
C 	 -46.4256 	 10.7049 	 91.0556 	 
H 	 -46.9514 	 10.0271 	 90.5815 	 
H 	 -46.5085 	 11.6374 	 90.4347 	 
H 	 -45.3594 	 10.4471 	 91.1458 	 
S 	 -50.4067 	 8.53974 	 87.5169 	 
C 	 -51.633 	 7.86762 	 86.5255 	 
C 	 -52.8245 	 7.88884 	 87.2021 	 
C 	 -52.8245 	 8.45626 	 88.4581 	 
C 	 -51.5624 	 8.79074 	 88.8647 	 
H 	 -53.7035 	 7.48991 	 86.7817 	 
C 	 -54.0457 	 8.39608 	 89.3616 	 
H 	 -54.9124 	 8.67851 	 88.6631 	 
H 	 -54.0712 	 9.21983 	 90.1224 	 
C 	 -54.3558 	 7.09328 	 90.1147 	 
H 	 -53.5725 	 6.69716 	 90.67 	 
H 	 -54.5651 	 6.32538 	 89.3498 	 
C 	 -55.5745 	 7.03777 	 91.1112 	 
H 	 -55.7845 	 7.94275 	 91.6062 	 
H 	 -55.5241 	 6.2971 	 91.8515 	 
H 	 -56.46 	 6.81408 	 90.447 	 
H 	 -50.2794 	 9.74812 	 93.5351 	 
H 	 -51.5436 	 7.383 	 85.5211 	 
