34

S 	 -3.30479 	 49.2108 	 47.8455 	 
C 	 -2.7061 	 50.8307 	 47.7022 	 
C 	 -3.73689 	 51.7254 	 47.3155 	 
C 	 -4.97678 	 51.056 	 47.1405 	 
C 	 -4.95083 	 49.7004 	 47.5819 	 
H 	 -5.87924 	 51.4675 	 46.8227 	 
C 	 -3.39055 	 53.1304 	 46.9613 	 
H 	 -4.10564 	 53.3548 	 46.1936 	 
H 	 -2.49527 	 53.1806 	 46.3606 	 
C 	 -3.42213 	 54.1752 	 48.1257 	 
H 	 -2.67435 	 53.8747 	 48.8809 	 
H 	 -3.22156 	 55.1938 	 47.7577 	 
C 	 -4.82651 	 54.0203 	 48.8081 	 
H 	 -4.9584 	 54.8352 	 49.531 	 
H 	 -5.71943 	 54.0559 	 48.1531 	 
H 	 -4.73689 	 53.0574 	 49.3041 	 
S 	 -5.65903 	 47.1505 	 46.7597 	 
C 	 -7.3459 	 46.7775 	 46.5525 	 
C 	 -8.12852 	 47.6812 	 47.2551 	 
C 	 -7.41666 	 48.8249 	 47.7581 	 
C 	 -6.02798 	 48.7116 	 47.5626 	 
H 	 -9.22607 	 47.5312 	 47.1686 	 
C 	 -8.1153 	 50.0554 	 48.3678 	 
H 	 -7.44457 	 50.8574 	 48.3984 	 
H 	 -8.23855 	 49.8311 	 49.4271 	 
C 	 -9.42901 	 50.5785 	 47.7798 	 
H 	 -9.78673 	 51.5855 	 48.0956 	 
H 	 -10.2057 	 49.7637 	 47.9323 	 
C 	 -9.23363 	 50.5876 	 46.2919 	 
H 	 -10.2187 	 50.7696 	 45.7856 	 
H 	 -8.93711 	 49.7081 	 45.7895 	 
H 	 -8.44149 	 51.3464 	 46.1625 	 
H 	 -1.69189 	 51.0567 	 47.8197 	 
H 	 -7.75367 	 46.0218 	 45.8965 	 
