34

S 	 -46.5196 	 55.9775 	 100.099 	 
C 	 -48.2475 	 55.9875 	 100.252 	 
C 	 -48.8581 	 56.8737 	 99.3896 	 
C 	 -47.9483 	 57.4385 	 98.4624 	 
C 	 -46.6554 	 57.1353 	 98.7136 	 
H 	 -48.1677 	 58.1096 	 97.6645 	 
C 	 -50.352 	 57.0422 	 99.1798 	 
H 	 -50.5437 	 57.3852 	 98.1764 	 
H 	 -50.6927 	 57.8783 	 99.7658 	 
C 	 -50.9979 	 55.6774 	 99.3225 	 
H 	 -50.3578 	 55.02 	 98.753 	 
H 	 -50.8875 	 55.3071 	 100.328 	 
C 	 -52.4463 	 55.6092 	 98.8357 	 
H 	 -52.9872 	 56.35 	 99.4196 	 
H 	 -52.6567 	 55.8236 	 97.7729 	 
H 	 -52.9283 	 54.6657 	 99.0923 	 
S 	 -44.5044 	 58.7667 	 98.8368 	 
C 	 -43.7071 	 59.1432 	 97.3521 	 
C 	 -44.1133 	 58.4116 	 96.268 	 
C 	 -45.2306 	 57.5426 	 96.5635 	 
C 	 -45.5199 	 57.5958 	 97.939 	 
H 	 -43.6255 	 58.541 	 95.3616 	 
C 	 -45.9614 	 56.7267 	 95.5312 	 
H 	 -46.5507 	 57.4453 	 95.0209 	 
H 	 -46.8375 	 56.1088 	 95.9834 	 
C 	 -45.1255 	 55.7984 	 94.5471 	 
H 	 -44.6541 	 56.4974 	 93.8366 	 
H 	 -45.8187 	 55.2326 	 93.9165 	 
C 	 -44.1996 	 54.7918 	 95.184 	 
H 	 -44.696 	 54.2697 	 95.9548 	 
H 	 -43.2991 	 55.3535 	 95.4987 	 
H 	 -43.93 	 54.0818 	 94.4355 	 
H 	 -48.7215 	 55.3816 	 100.998 	 
H 	 -42.9045 	 59.8599 	 97.2585 	 
