34

S 	 44.9362 	 19.6708 	 104.999 	 
C 	 45.7924 	 20.1088 	 103.527 	 
C 	 46.1772 	 18.9635 	 102.849 	 
C 	 45.7705 	 17.7574 	 103.556 	 
C 	 45.2034 	 17.9419 	 104.811 	 
H 	 45.743 	 16.7696 	 103.189 	 
C 	 46.8014 	 18.9144 	 101.51 	 
H 	 47.7945 	 18.8604 	 101.74 	 
H 	 46.6013 	 19.8648 	 101.01 	 
C 	 46.2736 	 17.8268 	 100.596 	 
H 	 46.5076 	 16.872 	 101.012 	 
H 	 45.1881 	 18.002 	 100.457 	 
C 	 46.8598 	 17.9985 	 99.1518 	 
H 	 46.776 	 19.0581 	 98.8877 	 
H 	 47.8846 	 17.6962 	 98.9191 	 
H 	 46.1936 	 17.5231 	 98.4418 	 
S 	 42.7843 	 17.1102 	 105.698 	 
C 	 42.5119 	 15.4961 	 106.14 	 
C 	 43.7239 	 14.7723 	 106.103 	 
C 	 44.8471 	 15.6313 	 105.933 	 
C 	 44.4702 	 16.9051 	 105.527 	 
H 	 43.7328 	 13.689 	 106.207 	 
C 	 46.3078 	 15.0749 	 105.87 	 
H 	 46.3548 	 14.3737 	 106.683 	 
H 	 47.0657 	 15.8656 	 105.999 	 
C 	 46.6077 	 14.3805 	 104.523 	 
H 	 47.5266 	 13.8321 	 104.645 	 
H 	 46.7693 	 15.126 	 103.779 	 
C 	 45.536 	 13.4117 	 103.923 	 
H 	 45.7025 	 13.2978 	 102.845 	 
H 	 44.5261 	 13.8202 	 103.897 	 
H 	 45.3735 	 12.3901 	 104.279 	 
H 	 46.0379 	 21.0652 	 103.128 	 
H 	 41.5665 	 15.0605 	 106.26 	 
