34

S 	 -2.31587 	 -15.6796 	 85.2081 	 
C 	 -3.72225 	 -16.6524 	 85.1997 	 
C 	 -3.46361 	 -17.8604 	 84.5692 	 
C 	 -2.15951 	 -17.8835 	 84.0102 	 
C 	 -1.35989 	 -16.8663 	 84.2859 	 
H 	 -1.88445 	 -18.6994 	 83.3506 	 
C 	 -4.49664 	 -18.974 	 84.6201 	 
H 	 -5.05083 	 -18.763 	 85.5702 	 
H 	 -3.94301 	 -19.8883 	 84.8493 	 
C 	 -5.47123 	 -19.1733 	 83.4409 	 
H 	 -6.26277 	 -19.8875 	 83.6277 	 
H 	 -5.98948 	 -18.2572 	 83.1746 	 
C 	 -4.62146 	 -19.7176 	 82.1813 	 
H 	 -5.19118 	 -20.0463 	 81.2598 	 
H 	 -3.93476 	 -19.0592 	 81.8025 	 
H 	 -3.96085 	 -20.5641 	 82.582 	 
S 	 1.14828 	 -16.6576 	 85.4183 	 
C 	 2.57561 	 -16.5156 	 84.4682 	 
C 	 2.21233 	 -16.6913 	 83.1341 	 
C 	 0.825777 	 -16.881 	 82.8908 	 
C 	 0.079348 	 -16.7301 	 84.0181 	 
H 	 2.97607 	 -16.5692 	 82.3317 	 
C 	 0.31172 	 -17.0377 	 81.5004 	 
H 	 0.855953 	 -16.2782 	 81.0238 	 
H 	 -0.738624 	 -16.849 	 81.4663 	 
C 	 0.731807 	 -18.2938 	 80.7536 	 
H 	 1.79135 	 -18.1621 	 80.5493 	 
H 	 0.283251 	 -18.3508 	 79.7231 	 
C 	 0.432834 	 -19.6362 	 81.4686 	 
H 	 0.571521 	 -19.7083 	 82.453 	 
H 	 1.03678 	 -20.4442 	 81.0847 	 
H 	 -0.593456 	 -19.9051 	 81.2051 	 
H 	 -4.66038 	 -16.4133 	 85.5818 	 
H 	 3.64536 	 -16.4882 	 84.7417 	 
