34

S 	 -0.978494 	 61.9633 	 47.6592 	 
C 	 -2.08335 	 61.631 	 48.9728 	 
C 	 -3.35688 	 61.3854 	 48.5237 	 
C 	 -3.31073 	 61.021 	 47.1473 	 
C 	 -2.13937 	 61.3157 	 46.5182 	 
H 	 -4.10569 	 60.6015 	 46.5513 	 
C 	 -4.57835 	 61.1765 	 49.4223 	 
H 	 -5.39636 	 61.6999 	 48.9047 	 
H 	 -4.231 	 61.6285 	 50.3336 	 
C 	 -4.94001 	 59.7553 	 49.8422 	 
H 	 -5.07074 	 59.1274 	 48.9424 	 
H 	 -4.03035 	 59.2819 	 50.3396 	 
C 	 -6.25022 	 59.6306 	 50.5719 	 
H 	 -6.95947 	 59.9901 	 49.8573 	 
H 	 -6.53906 	 58.63 	 50.8624 	 
H 	 -6.36321 	 60.2907 	 51.5091 	 
S 	 -1.98882 	 62.938 	 44.3969 	 
C 	 -1.66391 	 62.3512 	 42.805 	 
C 	 -1.49377 	 61.0108 	 42.7988 	 
C 	 -1.76101 	 60.3902 	 44.0797 	 
C 	 -1.86202 	 61.3324 	 45.064 	 
H 	 -1.26709 	 60.471 	 41.866 	 
C 	 -1.65543 	 58.8874 	 44.2964 	 
H 	 -1.34744 	 58.9175 	 45.3617 	 
H 	 -0.878164 	 58.5682 	 43.6284 	 
C 	 -3.03235 	 58.2534 	 44.2871 	 
H 	 -3.52904 	 58.3761 	 43.326 	 
H 	 -3.56948 	 58.7212 	 45.0121 	 
C 	 -3.04025 	 56.8337 	 44.7901 	 
H 	 -2.72399 	 56.8485 	 45.8258 	 
H 	 -2.361 	 56.1653 	 44.3254 	 
H 	 -4.08618 	 56.4241 	 44.8272 	 
H 	 -1.84482 	 61.7818 	 50.0951 	 
H 	 -1.59187 	 62.8894 	 41.8713 	 
