34

S 	 -38.7584 	 50.0556 	 106.313 	 
C 	 -37.2953 	 49.0698 	 106.074 	 
C 	 -36.5523 	 49.5341 	 104.949 	 
C 	 -37.2984 	 50.5486 	 104.234 	 
C 	 -38.5412 	 50.8836 	 104.78 	 
H 	 -36.8956 	 51.0276 	 103.389 	 
C 	 -35.3132 	 48.9143 	 104.378 	 
H 	 -34.8361 	 48.6355 	 105.28 	 
H 	 -34.642 	 49.567 	 103.917 	 
C 	 -35.6211 	 47.6102 	 103.494 	 
H 	 -34.6483 	 47.0931 	 103.332 	 
H 	 -36.4282 	 46.9695 	 103.971 	 
C 	 -36.1931 	 47.9301 	 102.048 	 
H 	 -35.3353 	 48.484 	 101.589 	 
H 	 -36.3529 	 47.1119 	 101.297 	 
H 	 -37.1274 	 48.5888 	 102.184 	 
S 	 -40.3042 	 52.8208 	 105.781 	 
C 	 -41.2897 	 53.7325 	 104.652 	 
C 	 -40.8611 	 53.5309 	 103.346 	 
C 	 -39.8539 	 52.4915 	 103.214 	 
C 	 -39.3466 	 52.0245 	 104.436 	 
H 	 -41.4432 	 53.9908 	 102.549 	 
C 	 -39.531 	 52.0239 	 101.82 	 
H 	 -38.4381 	 51.7907 	 101.84 	 
H 	 -39.6623 	 52.8819 	 101.136 	 
C 	 -40.4257 	 50.8393 	 101.382 	 
H 	 -40.261 	 49.9143 	 101.921 	 
H 	 -40.3161 	 50.644 	 100.293 	 
C 	 -41.9365 	 51.1599 	 101.439 	 
H 	 -42.2124 	 51.4606 	 102.409 	 
H 	 -42.5435 	 50.2988 	 101.202 	 
H 	 -42.1007 	 52.0465 	 100.77 	 
H 	 -37.0347 	 48.2356 	 106.736 	 
H 	 -42.0791 	 54.4651 	 104.929 	 
