34

S 	 -44.344 	 51.0072 	 99.9968 	 
C 	 -44.2639 	 51.4961 	 101.645 	 
C 	 -45.2966 	 52.3827 	 101.912 	 
C 	 -46.0309 	 52.7592 	 100.716 	 
C 	 -45.6081 	 52.1672 	 99.5243 	 
H 	 -46.7887 	 53.5119 	 100.759 	 
C 	 -45.3872 	 52.9064 	 103.298 	 
H 	 -44.4462 	 52.9872 	 103.825 	 
H 	 -46.0469 	 52.1971 	 103.94 	 
C 	 -45.9512 	 54.3274 	 103.418 	 
H 	 -45.8466 	 54.647 	 104.437 	 
H 	 -45.4855 	 55.0362 	 102.71 	 
C 	 -47.4638 	 54.3987 	 103.116 	 
H 	 -47.8401 	 53.4246 	 102.854 	 
H 	 -48.0554 	 54.6037 	 104.016 	 
H 	 -47.6266 	 55.1588 	 102.317 	 
S 	 -46.1559 	 50.7513 	 97.4311 	 
C 	 -47.1206 	 51.4271 	 96.0795 	 
C 	 -47.1467 	 52.8035 	 96.1936 	 
C 	 -46.6797 	 53.3012 	 97.4515 	 
C 	 -46.0558 	 52.2994 	 98.1836 	 
H 	 -47.5999 	 53.4047 	 95.4171 	 
C 	 -46.8679 	 54.7464 	 97.8988 	 
H 	 -46.0157 	 55.3875 	 97.4887 	 
H 	 -46.7418 	 54.8722 	 98.9954 	 
C 	 -48.2996 	 55.2648 	 97.6333 	 
H 	 -49.0036 	 54.7007 	 98.2225 	 
H 	 -48.5238 	 55.0432 	 96.6084 	 
C 	 -48.5641 	 56.7824 	 97.8511 	 
H 	 -47.7256 	 57.4713 	 97.5273 	 
H 	 -48.7074 	 57.1001 	 98.9334 	 
H 	 -49.3957 	 57.1801 	 97.2243 	 
H 	 -43.5481 	 51.1323 	 102.33 	 
H 	 -47.6085 	 50.9136 	 95.2453 	 
