34

S 	 -42.8088 	 54.2329 	 103.698 	 
C 	 -44.463 	 54.7262 	 103.621 	 
C 	 -45.1925 	 54.023 	 102.585 	 
C 	 -44.2669 	 53.2379 	 101.822 	 
C 	 -42.9361 	 53.3602 	 102.164 	 
H 	 -44.4999 	 52.5816 	 100.999 	 
C 	 -46.704 	 54.0632 	 102.427 	 
H 	 -46.9453 	 53.8584 	 101.41 	 
H 	 -46.9868 	 55.1661 	 102.409 	 
C 	 -47.6225 	 53.3473 	 103.455 	 
H 	 -47.6168 	 53.7325 	 104.433 	 
H 	 -48.6726 	 53.4515 	 103.135 	 
C 	 -47.4366 	 51.721 	 103.539 	 
H 	 -48.3244 	 51.3222 	 104.059 	 
H 	 -47.4922 	 51.2667 	 102.522 	 
H 	 -46.625 	 51.4237 	 104.117 	 
S 	 -40.6083 	 54.0831 	 100.874 	 
C 	 -39.5005 	 52.858 	 100.383 	 
C 	 -39.9772 	 51.5793 	 100.659 	 
C 	 -41.2993 	 51.5844 	 101.266 	 
C 	 -41.7752 	 52.8788 	 101.451 	 
H 	 -39.3033 	 50.7554 	 100.367 	 
C 	 -41.8836 	 50.3203 	 101.944 	 
H 	 -42.2585 	 49.5714 	 101.183 	 
H 	 -42.7978 	 50.5183 	 102.51 	 
C 	 -40.8787 	 49.7864 	 103.022 	 
H 	 -39.9238 	 49.5974 	 102.608 	 
H 	 -41.2414 	 48.781 	 103.245 	 
C 	 -40.7415 	 50.6136 	 104.275 	 
H 	 -40.3173 	 51.6365 	 104.167 	 
H 	 -40.0808 	 50.0971 	 104.989 	 
H 	 -41.7225 	 50.772 	 104.721 	 
H 	 -44.8739 	 55.4468 	 104.341 	 
H 	 -38.4979 	 52.9431 	 99.9424 	 
