34

S 	 68.541 	 21.098 	 72.6064 	 
C 	 67.3723 	 19.9804 	 72.0191 	 
C 	 66.1141 	 20.526 	 72.0622 	 
C 	 66.0733 	 21.859 	 72.4709 	 
C 	 67.2988 	 22.3561 	 72.7645 	 
H 	 65.1882 	 22.4969 	 72.5541 	 
C 	 64.8694 	 19.8079 	 71.57 	 
H 	 64.8138 	 20.1536 	 70.5414 	 
H 	 63.9622 	 20.136 	 72.0441 	 
C 	 64.9333 	 18.2571 	 71.564 	 
H 	 65.6483 	 17.8636 	 70.8772 	 
H 	 65.2718 	 17.9633 	 72.5735 	 
C 	 63.6067 	 17.6327 	 71.2507 	 
H 	 62.8375 	 17.9666 	 71.9506 	 
H 	 63.2342 	 17.9589 	 70.2841 	 
H 	 63.7362 	 16.5281 	 71.2255 	 
S 	 67.1217 	 23.9872 	 74.935 	 
C 	 67.4532 	 25.6844 	 74.7616 	 
C 	 67.9377 	 25.9475 	 73.5077 	 
C 	 68.0192 	 24.8282 	 72.6081 	 
C 	 67.5083 	 23.69 	 73.2097 	 
H 	 68.1719 	 27.0286 	 73.3353 	 
C 	 68.5081 	 24.9435 	 71.1848 	 
H 	 68.53 	 26.0501 	 71.0134 	 
H 	 67.7934 	 24.5675 	 70.5066 	 
C 	 69.8862 	 24.3264 	 70.9065 	 
H 	 70.0245 	 23.2205 	 71.1686 	 
H 	 70.6285 	 24.767 	 71.5816 	 
C 	 70.351 	 24.6051 	 69.5145 	 
H 	 71.3715 	 24.2764 	 69.2822 	 
H 	 70.4301 	 25.7082 	 69.3885 	 
H 	 69.6107 	 24.2421 	 68.8281 	 
H 	 67.5275 	 18.9557 	 71.811 	 
H 	 67.5342 	 26.4647 	 75.4922 	 
