34

S 	 -31.1176 	 69.4013 	 100.972 	 
C 	 -31.2274 	 67.6724 	 100.929 	 
C 	 -30.9468 	 67.1273 	 102.158 	 
C 	 -30.4341 	 68.0112 	 103.113 	 
C 	 -30.3244 	 69.2927 	 102.584 	 
H 	 -30.1714 	 67.8847 	 104.146 	 
C 	 -31.0247 	 65.6236 	 102.46 	 
H 	 -31.698 	 65.1867 	 101.758 	 
H 	 -31.3729 	 65.4336 	 103.456 	 
C 	 -29.7764 	 64.773 	 102.168 	 
H 	 -28.8959 	 65.0538 	 102.824 	 
H 	 -29.953 	 63.6515 	 102.337 	 
C 	 -29.1377 	 64.9173 	 100.89 	 
H 	 -29.6671 	 64.4108 	 100.147 	 
H 	 -28.849 	 65.9771 	 100.664 	 
H 	 -28.167 	 64.3256 	 100.897 	 
S 	 -30.933 	 71.7168 	 103.882 	 
C 	 -29.744 	 72.625 	 104.69 	 
C 	 -28.4968 	 72.0924 	 104.371 	 
C 	 -28.4789 	 70.8454 	 103.632 	 
C 	 -29.794 	 70.4645 	 103.332 	 
H 	 -27.5532 	 72.3863 	 104.699 	 
C 	 -27.1866 	 69.989 	 103.495 	 
H 	 -27.4914 	 69.0195 	 103.306 	 
H 	 -26.7367 	 69.9373 	 104.462 	 
C 	 -26.2525 	 70.4667 	 102.455 	 
H 	 -25.2908 	 69.9874 	 102.576 	 
H 	 -26.0962 	 71.4684 	 102.665 	 
C 	 -26.8043 	 70.1621 	 101.008 	 
H 	 -27.8151 	 70.5135 	 100.858 	 
H 	 -26.8342 	 69.0747 	 100.862 	 
H 	 -26.1348 	 70.5643 	 100.301 	 
H 	 -31.5463 	 67.2419 	 100.002 	 
H 	 -29.9192 	 73.5041 	 105.218 	 
