34

S 	 -33.8998 	 36.3213 	 104.082 	 
C 	 -34.3874 	 35.0571 	 102.966 	 
C 	 -34.6665 	 35.5782 	 101.686 	 
C 	 -34.7402 	 37.0055 	 101.641 	 
C 	 -34.4023 	 37.55 	 102.846 	 
H 	 -35.0025 	 37.6413 	 100.836 	 
C 	 -34.834 	 34.6837 	 100.447 	 
H 	 -35.051 	 33.6476 	 100.739 	 
H 	 -33.8259 	 34.5141 	 100.086 	 
C 	 -35.6897 	 35.2563 	 99.2981 	 
H 	 -36.7514 	 35.2062 	 99.5662 	 
H 	 -35.4641 	 36.3737 	 99.1743 	 
C 	 -35.2846 	 34.5097 	 97.9854 	 
H 	 -34.2302 	 34.6864 	 97.6889 	 
H 	 -35.4283 	 33.407 	 97.9921 	 
H 	 -35.7735 	 35.03 	 97.1554 	 
S 	 -32.8804 	 39.7573 	 103.034 	 
C 	 -33.6237 	 41.313 	 102.958 	 
C 	 -35.0337 	 41.198 	 103.066 	 
C 	 -35.507 	 39.8788 	 103.168 	 
C 	 -34.4256 	 38.9601 	 103.191 	 
H 	 -35.5997 	 42.1233 	 103.146 	 
C 	 -36.9543 	 39.4653 	 103.018 	 
H 	 -37.1352 	 39.0825 	 101.995 	 
H 	 -37.594 	 40.3467 	 103.08 	 
C 	 -37.4573 	 38.405 	 104.099 	 
H 	 -37.3086 	 38.8478 	 105.073 	 
H 	 -36.8618 	 37.496 	 104.089 	 
C 	 -38.9932 	 38.1484 	 103.998 	 
H 	 -39.427 	 37.6123 	 104.88 	 
H 	 -39.0969 	 37.4904 	 103.16 	 
H 	 -39.4736 	 39.063 	 103.686 	 
H 	 -34.2112 	 34.0235 	 103.219 	 
H 	 -33.122 	 42.2267 	 103.086 	 
