34

S 	 9.79724 	 -13.5731 	 70.0298 	 
C 	 8.36348 	 -12.8749 	 69.3529 	 
C 	 8.6955 	 -12.2832 	 68.1498 	 
C 	 10.1373 	 -12.2641 	 67.8533 	 
C 	 10.8546 	 -12.9211 	 68.8289 	 
H 	 10.6414 	 -11.7479 	 67.0576 	 
C 	 7.6889 	 -11.6969 	 67.2174 	 
H 	 6.65816 	 -11.8501 	 67.5383 	 
H 	 7.73746 	 -12.1306 	 66.2283 	 
C 	 7.77103 	 -10.1623 	 67.1651 	 
H 	 7.52934 	 -9.89043 	 68.1482 	 
H 	 8.78911 	 -9.84577 	 67.0834 	 
C 	 6.88375 	 -9.44402 	 66.0891 	 
H 	 5.84386 	 -9.57334 	 66.4091 	 
H 	 7.1684 	 -8.38145 	 66.1361 	 
H 	 6.99154 	 -9.74606 	 65.0381 	 
S 	 12.8509 	 -14.7762 	 68.8272 	 
C 	 14.5529 	 -14.3228 	 68.949 	 
C 	 14.5673 	 -12.9734 	 69.102 	 
C 	 13.3019 	 -12.2834 	 69.0803 	 
C 	 12.2933 	 -13.1094 	 68.9884 	 
H 	 15.5232 	 -12.4042 	 69.1714 	 
C 	 13.2243 	 -10.8307 	 69.2581 	 
H 	 13.683 	 -10.6536 	 70.2825 	 
H 	 12.1558 	 -10.581 	 69.2965 	 
C 	 13.7734 	 -9.80513 	 68.1953 	 
H 	 13.2681 	 -9.7941 	 67.2763 	 
H 	 14.8588 	 -10.1042 	 68.0067 	 
C 	 13.6905 	 -8.33693 	 68.6665 	 
H 	 13.5692 	 -7.60779 	 67.8125 	 
H 	 14.5857 	 -8.02336 	 69.2528 	 
H 	 12.8279 	 -8.09745 	 69.3631 	 
H 	 7.38382 	 -13.1098 	 69.7711 	 
H 	 15.4291 	 -14.9777 	 68.9613 	 
