34

S 	 -41.5547 	 37.495 	 76.8835 	 
C 	 -41.5938 	 36.99 	 78.5033 	 
C 	 -40.2662 	 36.8003 	 78.9687 	 
C 	 -39.3356 	 36.9736 	 77.9542 	 
C 	 -39.8142 	 37.3474 	 76.7051 	 
H 	 -38.322 	 36.9119 	 78.1743 	 
C 	 -39.8143 	 36.4706 	 80.3425 	 
H 	 -38.8165 	 36.9468 	 80.4153 	 
H 	 -39.6706 	 35.4277 	 80.5815 	 
C 	 -40.7619 	 37.0759 	 81.3889 	 
H 	 -41.6835 	 36.5095 	 81.3304 	 
H 	 -40.4248 	 36.8187 	 82.4228 	 
C 	 -41.087 	 38.5693 	 81.2673 	 
H 	 -40.2552 	 39.1838 	 81.6169 	 
H 	 -41.239 	 38.8957 	 80.2008 	 
H 	 -42.0566 	 38.8052 	 81.8375 	 
S 	 -39.3563 	 39.2581 	 74.867 	 
C 	 -38.0969 	 39.1411 	 73.7082 	 
C 	 -37.5713 	 37.841 	 73.7331 	 
C 	 -38.1175 	 37.0181 	 74.7956 	 
C 	 -39.0526 	 37.6811 	 75.5639 	 
H 	 -36.7845 	 37.5585 	 73.0516 	 
C 	 -37.6194 	 35.6255 	 75.0275 	 
H 	 -37.4357 	 35.4735 	 76.103 	 
H 	 -36.6993 	 35.5001 	 74.5433 	 
C 	 -38.523 	 34.4079 	 74.6465 	 
H 	 -39.4118 	 34.3858 	 75.2765 	 
H 	 -37.9389 	 33.5661 	 75.046 	 
C 	 -38.6965 	 34.1226 	 73.1479 	 
H 	 -39.0389 	 35.0369 	 72.6659 	 
H 	 -39.4423 	 33.3325 	 73.0646 	 
H 	 -37.715 	 33.7666 	 72.724 	 
H 	 -42.4822 	 37.0367 	 79.1068 	 
H 	 -37.8539 	 40.0271 	 73.1426 	 
