34

S 	 -45.4621 	 55.6111 	 98.3254 	 
C 	 -46.6202 	 55.252 	 99.6157 	 
C 	 -45.9698 	 54.7569 	 100.776 	 
C 	 -44.5515 	 54.6834 	 100.559 	 
C 	 -44.1106 	 55.1506 	 99.3212 	 
H 	 -43.8661 	 54.3085 	 101.331 	 
C 	 -46.5692 	 54.3927 	 102.121 	 
H 	 -47.5931 	 54.7165 	 102.266 	 
H 	 -45.8976 	 54.8957 	 102.893 	 
C 	 -46.5179 	 52.8593 	 102.33 	 
H 	 -47.1052 	 52.3188 	 101.691 	 
H 	 -45.4845 	 52.5741 	 102.184 	 
C 	 -46.8923 	 52.4706 	 103.804 	 
H 	 -46.1679 	 52.942 	 104.505 	 
H 	 -47.8027 	 52.8763 	 104.18 	 
H 	 -46.841 	 51.3293 	 103.88 	 
S 	 -42.1976 	 54.1324 	 97.6803 	 
C 	 -40.5608 	 54.806 	 97.8614 	 
C 	 -40.434 	 55.8014 	 98.7782 	 
C 	 -41.6932 	 56.0949 	 99.3938 	 
C 	 -42.7359 	 55.3035 	 98.8306 	 
H 	 -39.5332 	 56.3383 	 98.9587 	 
C 	 -41.8559 	 57.2748 	 100.386 	 
H 	 -40.8737 	 57.2653 	 100.965 	 
H 	 -42.532 	 57.1088 	 101.174 	 
C 	 -42.1125 	 58.7434 	 99.8993 	 
H 	 -41.2646 	 59.1746 	 99.2929 	 
H 	 -42.042 	 59.2995 	 100.861 	 
C 	 -43.4522 	 58.7728 	 99.1943 	 
H 	 -43.7368 	 59.6909 	 98.6963 	 
H 	 -44.2765 	 58.5677 	 99.8213 	 
H 	 -43.5142 	 58.0004 	 98.4218 	 
H 	 -47.6705 	 55.5085 	 99.6058 	 
H 	 -39.823 	 54.5803 	 97.1303 	 
