34

S 	 -45.7835 	 39.0321 	 82.2939 	 
C 	 -46.7324 	 38.3571 	 83.6291 	 
C 	 -46.2993 	 38.8161 	 84.8521 	 
C 	 -45.0497 	 39.4819 	 84.7184 	 
C 	 -44.645 	 39.7846 	 83.4207 	 
H 	 -44.4348 	 39.9447 	 85.5128 	 
C 	 -46.9993 	 38.4813 	 86.1437 	 
H 	 -46.2161 	 38.4486 	 86.8647 	 
H 	 -47.5417 	 37.553 	 85.9962 	 
C 	 -47.9946 	 39.4809 	 86.6819 	 
H 	 -47.5951 	 40.5309 	 86.7913 	 
H 	 -48.7585 	 39.6046 	 85.8935 	 
C 	 -48.5883 	 38.9419 	 87.9537 	 
H 	 -49.2951 	 39.7095 	 88.3254 	 
H 	 -48.9674 	 37.9482 	 87.758 	 
H 	 -47.7655 	 38.796 	 88.696 	 
S 	 -43.7937 	 42.086 	 82.1283 	 
C 	 -42.2289 	 42.6749 	 82.4712 	 
C 	 -41.4188 	 41.7913 	 83.2059 	 
C 	 -42.1354 	 40.6119 	 83.5548 	 
C 	 -43.4958 	 40.656 	 83.1713 	 
H 	 -40.3607 	 42.0438 	 83.4411 	 
C 	 -41.5139 	 39.4729 	 84.4237 	 
H 	 -41.7566 	 39.6009 	 85.4422 	 
H 	 -40.4631 	 39.7115 	 84.4419 	 
C 	 -41.7755 	 38.0927 	 84.0298 	 
H 	 -42.776 	 37.9183 	 84.2033 	 
H 	 -41.1733 	 37.4624 	 84.6238 	 
C 	 -41.4577 	 37.7052 	 82.512 	 
H 	 -42.1446 	 37.0049 	 82.1369 	 
H 	 -40.4285 	 37.2072 	 82.5232 	 
H 	 -41.3931 	 38.5394 	 81.8571 	 
H 	 -47.7578 	 37.8475 	 83.4583 	 
H 	 -41.9583 	 43.6265 	 82.1289 	 
