34

S 	 -15.4852 	 36.9431 	 35.8945 	 
C 	 -15.382 	 37.9893 	 37.2477 	 
C 	 -15.1296 	 37.3177 	 38.4381 	 
C 	 -15.1797 	 35.9137 	 38.2291 	 
C 	 -15.3862 	 35.5293 	 36.9252 	 
H 	 -14.9914 	 35.127 	 38.9445 	 
C 	 -14.7562 	 37.955 	 39.7979 	 
H 	 -14.9582 	 37.2402 	 40.5582 	 
H 	 -15.4766 	 38.7212 	 39.9753 	 
C 	 -13.3381 	 38.4931 	 39.8431 	 
H 	 -13.211 	 39.3265 	 39.1088 	 
H 	 -13.1501 	 38.9592 	 40.8058 	 
C 	 -12.2693 	 37.3535 	 39.7414 	 
H 	 -12.2827 	 36.6727 	 40.5921 	 
H 	 -12.3429 	 36.7909 	 38.7939 	 
H 	 -11.3039 	 37.8506 	 39.7483 	 
S 	 -14.1348 	 34.0228 	 35.034 	 
C 	 -14.2613 	 32.3024 	 34.9873 	 
C 	 -14.9896 	 31.807 	 36.0166 	 
C 	 -15.5843 	 32.8659 	 36.7665 	 
C 	 -15.2218 	 34.1479 	 36.3671 	 
H 	 -15.0921 	 30.7111 	 35.9972 	 
C 	 -16.4139 	 32.5229 	 37.9503 	 
H 	 -17.3708 	 33.1472 	 37.9222 	 
H 	 -15.909 	 33.0651 	 38.7248 	 
C 	 -16.7131 	 31.0411 	 38.2088 	 
H 	 -15.7707 	 30.4908 	 38.2749 	 
H 	 -17.3427 	 30.6136 	 37.3962 	 
C 	 -17.4044 	 30.6801 	 39.5941 	 
H 	 -18.305 	 31.2838 	 39.7261 	 
H 	 -16.8383 	 30.7711 	 40.4736 	 
H 	 -17.7882 	 29.6547 	 39.6593 	 
H 	 -15.4321 	 38.9777 	 37.0316 	 
H 	 -13.8326 	 31.6049 	 34.3351 	 
