34

S 	 41.7087 	 13.3557 	 82.1231 	 
C 	 42.7087 	 14.07 	 80.8462 	 
C 	 43.674 	 13.1828 	 80.4121 	 
C 	 43.6946 	 11.9789 	 81.1554 	 
C 	 42.7109 	 11.9171 	 82.1056 	 
H 	 44.2989 	 11.1349 	 80.8837 	 
C 	 44.7238 	 13.4975 	 79.3453 	 
H 	 45.6344 	 13.0014 	 79.513 	 
H 	 44.8687 	 14.5803 	 79.3388 	 
C 	 44.2582 	 13.048 	 77.9577 	 
H 	 43.2301 	 13.3768 	 77.9691 	 
H 	 44.9002 	 13.5034 	 77.2341 	 
C 	 44.0642 	 11.5551 	 77.7509 	 
H 	 43.3544 	 11.4835 	 76.9059 	 
H 	 44.9477 	 10.9241 	 77.6161 	 
H 	 43.5442 	 11.1012 	 78.5823 	 
S 	 43.3954 	 10.5655 	 84.3535 	 
C 	 42.3264 	 9.42336 	 85.0996 	 
C 	 41.1684 	 9.36636 	 84.33 	 
C 	 41.1551 	 10.0832 	 83.1076 	 
C 	 42.3696 	 10.7911 	 82.9607 	 
H 	 40.4301 	 8.61871 	 84.5999 	 
C 	 39.9563 	 10.2281 	 82.362 	 
H 	 39.5788 	 9.23305 	 82.0804 	 
H 	 40.0936 	 10.8477 	 81.4534 	 
C 	 38.7181 	 10.8082 	 83.0239 	 
H 	 39.0129 	 11.5591 	 83.6615 	 
H 	 38.3093 	 10.0165 	 83.6793 	 
C 	 37.6462 	 11.4442 	 82.0926 	 
H 	 36.7063 	 11.4887 	 82.5931 	 
H 	 37.4816 	 10.759 	 81.2209 	 
H 	 37.901 	 12.4196 	 81.7054 	 
H 	 42.7224 	 15.1193 	 80.5681 	 
H 	 42.4029 	 8.9091 	 86.0039 	 
