34

S 	 37.7644 	 23.8262 	 97.019 	 
C 	 38.2218 	 25.0612 	 95.8217 	 
C 	 39.5132 	 24.916 	 95.3576 	 
C 	 40.1102 	 23.755 	 95.9812 	 
C 	 39.3227 	 23.0398 	 96.8869 	 
H 	 41.0454 	 23.355 	 95.7613 	 
C 	 40.1946 	 25.505 	 94.1966 	 
H 	 41.1535 	 25.8483 	 94.5806 	 
H 	 39.7611 	 26.4121 	 93.9158 	 
C 	 40.4425 	 24.7059 	 92.9529 	 
H 	 39.4886 	 24.4335 	 92.524 	 
H 	 40.8123 	 25.5131 	 92.428 	 
C 	 41.3854 	 23.5382 	 93.094 	 
H 	 41.5635 	 23.2281 	 92.0736 	 
H 	 42.3247 	 23.8362 	 93.4789 	 
H 	 41.164 	 22.8821 	 93.8105 	 
S 	 41.1867 	 21.776 	 98.4522 	 
C 	 40.8729 	 20.1685 	 99.0793 	 
C 	 39.7026 	 19.7078 	 98.6046 	 
C 	 38.963 	 20.6381 	 97.8026 	 
C 	 39.676 	 21.7926 	 97.5932 	 
H 	 39.3615 	 18.8035 	 98.9877 	 
C 	 37.5483 	 20.3105 	 97.4309 	 
H 	 37.1048 	 21.1841 	 97.1588 	 
H 	 37.0215 	 20.0927 	 98.3188 	 
C 	 37.3702 	 19.1495 	 96.4274 	 
H 	 36.3205 	 19.0879 	 96.1681 	 
H 	 37.5285 	 18.244 	 96.9607 	 
C 	 38.1321 	 19.2499 	 95.1023 	 
H 	 37.644 	 19.986 	 94.4918 	 
H 	 38.173 	 18.3277 	 94.6214 	 
H 	 39.1757 	 19.5533 	 95.2319 	 
H 	 37.4878 	 25.8203 	 95.4314 	 
H 	 41.5906 	 19.5741 	 99.7083 	 
