34

S 	 49.1733 	 20.4034 	 89.2677 	 
C 	 47.8823 	 21.4584 	 88.9358 	 
C 	 48.0746 	 22.2243 	 87.8001 	 
C 	 49.3239 	 21.9283 	 87.1866 	 
C 	 50.098 	 21.05 	 87.8947 	 
H 	 49.704 	 22.3563 	 86.2678 	 
C 	 47.03 	 23.2828 	 87.3775 	 
H 	 46.2686 	 23.2411 	 88.0777 	 
H 	 46.6542 	 22.817 	 86.4855 	 
C 	 47.5776 	 24.7053 	 87.0696 	 
H 	 48.3963 	 24.9604 	 87.7449 	 
H 	 47.8984 	 24.7241 	 86.0371 	 
C 	 46.4827 	 25.8366 	 87.0437 	 
H 	 45.98 	 26.0012 	 88.0346 	 
H 	 47.0261 	 26.676 	 86.6807 	 
H 	 45.7375 	 25.5539 	 86.3733 	 
S 	 52.7519 	 21.0756 	 88.5592 	 
C 	 53.7167 	 19.7276 	 87.8184 	 
C 	 53.0381 	 19.2531 	 86.6887 	 
C 	 51.795 	 19.8164 	 86.4849 	 
C 	 51.4134 	 20.5936 	 87.5458 	 
H 	 53.4089 	 18.5009 	 86.0103 	 
C 	 50.9388 	 19.293 	 85.3572 	 
H 	 51.7886 	 19.3535 	 84.6744 	 
H 	 50.161 	 20.0442 	 85.3031 	 
C 	 50.4406 	 17.8931 	 85.6555 	 
H 	 50.1707 	 17.8213 	 86.7025 	 
H 	 51.2443 	 17.1948 	 85.4614 	 
C 	 49.1536 	 17.5876 	 84.8809 	 
H 	 49.3556 	 17.1454 	 83.8781 	 
H 	 48.6004 	 18.4982 	 84.7504 	 
H 	 48.5659 	 16.8385 	 85.3195 	 
H 	 46.9449 	 21.489 	 89.5235 	 
H 	 54.6645 	 19.431 	 88.235 	 
