34

S 	 53.9738 	 27.6283 	 43.1626 	 
C 	 55.3248 	 27.7703 	 44.2589 	 
C 	 56.2218 	 26.7047 	 44.1532 	 
C 	 55.7001 	 25.7557 	 43.256 	 
C 	 54.5227 	 26.0981 	 42.654 	 
H 	 56.1835 	 24.8466 	 42.9616 	 
C 	 57.446 	 26.4224 	 45.0133 	 
H 	 58.2194 	 27.1703 	 44.8635 	 
H 	 57.8995 	 25.5169 	 44.6539 	 
C 	 57.1273 	 26.119 	 46.5209 	 
H 	 57.9117 	 25.6558 	 47.0421 	 
H 	 56.9119 	 27.0851 	 46.915 	 
C 	 55.9829 	 25.1987 	 46.7381 	 
H 	 55.0852 	 25.298 	 46.0174 	 
H 	 56.3864 	 24.2437 	 46.4387 	 
H 	 55.6214 	 25.1076 	 47.7569 	 
S 	 52.0039 	 25.3315 	 42.1195 	 
C 	 51.6844 	 24.3463 	 40.7511 	 
C 	 52.815 	 23.8883 	 40.1615 	 
C 	 54.0005 	 24.4368 	 40.753 	 
C 	 53.711 	 25.2394 	 41.8506 	 
H 	 52.848 	 23.1919 	 39.3812 	 
C 	 55.3599 	 24.1599 	 40.0979 	 
H 	 56.1233 	 24.8667 	 40.4656 	 
H 	 55.2058 	 24.4631 	 39.0782 	 
C 	 55.9334 	 22.7317 	 40.2692 	 
H 	 55.2808 	 22.0067 	 39.7813 	 
H 	 55.957 	 22.417 	 41.3128 	 
C 	 57.3622 	 22.6108 	 39.6908 	 
H 	 57.8054 	 21.6447 	 39.9698 	 
H 	 57.9986 	 23.471 	 40.0363 	 
H 	 57.4 	 22.5531 	 38.6028 	 
H 	 55.4765 	 28.5943 	 44.9294 	 
H 	 50.7044 	 24.0382 	 40.4692 	 
