34

S 	 15.0002 	 13.8023 	 85.9121 	 
C 	 16.3367 	 14.1285 	 84.8886 	 
C 	 16.4768 	 13.3557 	 83.787 	 
C 	 15.3003 	 12.5758 	 83.6388 	 
C 	 14.3913 	 12.7291 	 84.6704 	 
H 	 14.958 	 12.0178 	 82.8102 	 
C 	 17.541 	 13.5284 	 82.7394 	 
H 	 17.771 	 12.4658 	 82.4326 	 
H 	 18.4575 	 13.8956 	 83.2492 	 
C 	 17.2597 	 14.2303 	 81.4373 	 
H 	 17.076 	 15.3024 	 81.7852 	 
H 	 18.1985 	 14.1757 	 80.9337 	 
C 	 16.1662 	 13.6051 	 80.5414 	 
H 	 15.1699 	 13.5134 	 81.0134 	 
H 	 16.1433 	 14.1663 	 79.6725 	 
H 	 16.4307 	 12.6227 	 80.244 	 
S 	 11.8044 	 13.1203 	 85.6707 	 
C 	 10.6122 	 11.8645 	 85.4258 	 
C 	 11.122 	 10.8246 	 84.6426 	 
C 	 12.4966 	 10.9599 	 84.2809 	 
C 	 13.0207 	 12.1745 	 84.7527 	 
H 	 10.4427 	 9.95616 	 84.5188 	 
C 	 13.2635 	 9.79237 	 83.6529 	 
H 	 13.1972 	 9.03322 	 84.3861 	 
H 	 14.3036 	 10.0871 	 83.6858 	 
C 	 12.7947 	 9.31075 	 82.2348 	 
H 	 11.8221 	 8.78734 	 82.28 	 
H 	 13.538 	 8.60961 	 81.8821 	 
C 	 12.8263 	 10.5055 	 81.1714 	 
H 	 12.1267 	 11.3672 	 81.3685 	 
H 	 12.6062 	 10.1183 	 80.1905 	 
H 	 13.7164 	 10.9874 	 80.9771 	 
H 	 17.0609 	 14.8378 	 85.1231 	 
H 	 9.64502 	 11.8932 	 85.9291 	 
