34

S 	 -55.7468 	 24.4891 	 97.7164 	 
C 	 -54.3538 	 23.4881 	 97.8387 	 
C 	 -53.9257 	 23.1311 	 96.6123 	 
C 	 -54.6093 	 23.7093 	 95.5178 	 
C 	 -55.6435 	 24.5515 	 95.9349 	 
H 	 -54.4202 	 23.5418 	 94.4533 	 
C 	 -52.7862 	 22.1143 	 96.2858 	 
H 	 -51.8899 	 22.352 	 96.9069 	 
H 	 -52.4683 	 22.3738 	 95.2174 	 
C 	 -53.1157 	 20.575 	 96.3372 	 
H 	 -53.2534 	 20.2019 	 97.2882 	 
H 	 -54.0451 	 20.3773 	 95.8199 	 
C 	 -52.0285 	 19.692 	 95.5727 	 
H 	 -52.3675 	 18.7191 	 95.4872 	 
H 	 -51.9308 	 20.1168 	 94.549 	 
H 	 -50.995 	 19.8139 	 95.9609 	 
S 	 -58.1934 	 25.5461 	 95.8899 	 
C 	 -58.6818 	 26.6307 	 94.6217 	 
C 	 -57.8179 	 26.6242 	 93.5919 	 
C 	 -56.6062 	 25.9403 	 93.8809 	 
C 	 -56.6688 	 25.3417 	 95.1697 	 
H 	 -57.9991 	 27.0755 	 92.6763 	 
C 	 -55.4958 	 25.8334 	 92.8828 	 
H 	 -55.8467 	 25.0763 	 92.1022 	 
H 	 -54.6406 	 25.4006 	 93.3759 	 
C 	 -55.1147 	 27.1965 	 92.1859 	 
H 	 -54.856 	 27.9407 	 92.9544 	 
H 	 -55.9407 	 27.4711 	 91.5922 	 
C 	 -53.8678 	 27.0745 	 91.3498 	 
H 	 -53.7152 	 26.1018 	 90.8234 	 
H 	 -52.9854 	 27.1002 	 91.9845 	 
H 	 -53.9001 	 27.7941 	 90.6269 	 
H 	 -54.0492 	 22.9706 	 98.7547 	 
H 	 -59.6224 	 27.1079 	 94.4909 	 
