34

S 	 -6.21154 	 -6.43496 	 85.059 	 
C 	 -6.65659 	 -8.18525 	 85.0516 	 
C 	 -5.52792 	 -8.91182 	 84.9088 	 
C 	 -4.32112 	 -8.16546 	 84.7 	 
C 	 -4.52097 	 -6.75952 	 84.7404 	 
H 	 -3.38279 	 -8.44372 	 84.4835 	 
C 	 -5.49206 	 -10.4345 	 84.8619 	 
H 	 -5.73934 	 -10.6965 	 83.7937 	 
H 	 -6.32564 	 -10.738 	 85.4381 	 
C 	 -4.20287 	 -11.2121 	 85.317 	 
H 	 -4.38027 	 -12.2433 	 85.134 	 
H 	 -3.40199 	 -11.0137 	 84.6635 	 
C 	 -3.8901 	 -10.9437 	 86.7844 	 
H 	 -4.72922 	 -11.2925 	 87.4172 	 
H 	 -3.02023 	 -11.5337 	 87.0748 	 
H 	 -3.57725 	 -9.93218 	 86.9395 	 
S 	 -3.88648 	 -4.66322 	 83.1102 	 
C 	 -2.36669 	 -3.84608 	 83.2766 	 
C 	 -1.54414 	 -4.48763 	 84.2156 	 
C 	 -2.25194 	 -5.62777 	 84.7717 	 
C 	 -3.58536 	 -5.76251 	 84.4104 	 
H 	 -0.49594 	 -4.26878 	 84.2913 	 
C 	 -1.64537 	 -6.28971 	 86.0013 	 
H 	 -0.595547 	 -5.9775 	 86.0708 	 
H 	 -1.61026 	 -7.39151 	 85.9553 	 
C 	 -2.2973 	 -6.08446 	 87.3774 	 
H 	 -1.81719 	 -6.55926 	 88.2066 	 
H 	 -3.35343 	 -6.44472 	 87.3905 	 
C 	 -2.39224 	 -4.64276 	 87.7687 	 
H 	 -2.92106 	 -4.60442 	 88.6675 	 
H 	 -2.82213 	 -3.91606 	 87.091 	 
H 	 -1.38472 	 -4.23721 	 87.9314 	 
H 	 -7.67604 	 -8.63464 	 85.0377 	 
H 	 -2.17729 	 -2.91942 	 82.7616 	 
