34

S 	 -69.2097 	 36.9351 	 142.965 	 
C 	 -70.4229 	 36.5876 	 141.695 	 
C 	 -69.7421 	 36.1171 	 140.556 	 
C 	 -68.3236 	 36.174 	 140.675 	 
C 	 -67.8723 	 36.6451 	 141.864 	 
H 	 -67.6177 	 35.9672 	 139.845 	 
C 	 -70.5172 	 35.6745 	 139.359 	 
H 	 -71.5663 	 35.5704 	 139.552 	 
H 	 -70.1251 	 34.649 	 139.335 	 
C 	 -70.3381 	 36.3343 	 137.927 	 
H 	 -70.8076 	 37.3058 	 137.983 	 
H 	 -69.3023 	 36.5153 	 137.799 	 
C 	 -70.9494 	 35.5956 	 136.771 	 
H 	 -70.4865 	 35.8428 	 135.775 	 
H 	 -70.9159 	 34.4779 	 136.888 	 
H 	 -71.9964 	 35.9034 	 136.807 	 
S 	 -65.34 	 35.6387 	 142.108 	 
C 	 -64.0754 	 36.7256 	 142.687 	 
C 	 -64.5234 	 38.0234 	 142.988 	 
C 	 -65.9753 	 38.1436 	 142.733 	 
C 	 -66.4918 	 36.9208 	 142.231 	 
H 	 -63.9558 	 38.8357 	 143.243 	 
C 	 -66.6461 	 39.4539 	 142.704 	 
H 	 -67.7042 	 39.3238 	 142.434 	 
H 	 -66.3188 	 40.0606 	 141.873 	 
C 	 -66.5496 	 40.3336 	 143.997 	 
H 	 -66.9787 	 41.2865 	 143.716 	 
H 	 -65.5761 	 40.625 	 144.269 	 
C 	 -67.2901 	 39.9217 	 145.273 	 
H 	 -68.2797 	 39.4681 	 145.065 	 
H 	 -67.5381 	 40.737 	 145.979 	 
H 	 -66.7395 	 39.1705 	 145.798 	 
H 	 -71.5089 	 36.4481 	 141.783 	 
H 	 -63.0251 	 36.3937 	 142.638 	 
