34

S 	 13.7999 	 21.829 	 39.9492 	 
C 	 14.8498 	 21.9723 	 38.543 	 
C 	 14.9672 	 20.7414 	 37.9018 	 
C 	 14.0389 	 19.8125 	 38.3864 	 
C 	 13.2957 	 20.2736 	 39.4606 	 
H 	 13.7782 	 18.8422 	 38.083 	 
C 	 15.5825 	 20.5668 	 36.4959 	 
H 	 15.6724 	 19.4628 	 36.3929 	 
H 	 16.5447 	 21.1102 	 36.513 	 
C 	 14.6932 	 21.0686 	 35.2827 	 
H 	 15.1938 	 20.7275 	 34.3291 	 
H 	 13.6575 	 20.7387 	 35.1683 	 
C 	 14.6415 	 22.6136 	 35.2985 	 
H 	 14.0556 	 22.9828 	 34.4027 	 
H 	 14.1139 	 22.9202 	 36.209 	 
H 	 15.7078 	 23.0319 	 35.3635 	 
S 	 12.1562 	 19.4873 	 41.8561 	 
C 	 10.6865 	 18.6087 	 41.7557 	 
C 	 10.1627 	 18.6671 	 40.4832 	 
C 	 11.0441 	 19.1925 	 39.459 	 
C 	 12.1624 	 19.6271 	 40.0823 	 
H 	 9.23778 	 18.0993 	 40.4059 	 
C 	 10.7431 	 19.0855 	 37.9418 	 
H 	 9.79499 	 18.5444 	 37.8127 	 
H 	 11.4826 	 18.3677 	 37.5961 	 
C 	 10.6803 	 20.3197 	 37.026 	 
H 	 10.9591 	 20.02 	 35.9831 	 
H 	 11.4719 	 21.0688 	 37.1747 	 
C 	 9.27232 	 20.9535 	 37.0775 	 
H 	 9.27994 	 21.9683 	 36.6195 	 
H 	 8.92967 	 21.0511 	 38.0466 	 
H 	 8.60724 	 20.4001 	 36.4405 	 
H 	 15.3479 	 22.8263 	 38.2064 	 
H 	 10.1609 	 18.087 	 42.5245 	 
