34

S 	 40.7826 	 19.464 	 82.3126 	 
C 	 39.3499 	 20.4726 	 82.0858 	 
C 	 39.2698 	 20.9207 	 80.7346 	 
C 	 40.2937 	 20.3373 	 79.9559 	 
C 	 41.1962 	 19.5129 	 80.6155 	 
H 	 40.474 	 20.6943 	 78.9423 	 
C 	 38.242 	 21.8547 	 80.1255 	 
H 	 38.8388 	 22.3792 	 79.3502 	 
H 	 37.8732 	 22.5162 	 80.8296 	 
C 	 37.1433 	 21.1164 	 79.348 	 
H 	 37.6001 	 20.3928 	 78.7327 	 
H 	 36.508 	 20.5879 	 80.0537 	 
C 	 36.2323 	 21.9611 	 78.5486 	 
H 	 35.3502 	 22.0923 	 79.0697 	 
H 	 36.7086 	 22.9026 	 78.2773 	 
H 	 35.9824 	 21.4565 	 77.6214 	 
S 	 43.8158 	 19.0958 	 80.8448 	 
C 	 44.7405 	 18.5366 	 79.4288 	 
C 	 43.8695 	 18.0552 	 78.4734 	 
C 	 42.5013 	 18.2696 	 78.7606 	 
C 	 42.341 	 18.8082 	 80.0703 	 
H 	 44.2487 	 17.7685 	 77.5224 	 
C 	 41.392 	 18.044 	 77.6739 	 
H 	 41.9951 	 18.162 	 76.757 	 
H 	 40.7966 	 18.9505 	 77.6253 	 
C 	 40.5501 	 16.7652 	 77.7619 	 
H 	 39.5901 	 17.0379 	 77.2495 	 
H 	 40.306 	 16.4768 	 78.792 	 
C 	 41.1543 	 15.5693 	 77.0367 	 
H 	 40.5581 	 14.6676 	 77.2948 	 
H 	 42.1629 	 15.3005 	 77.3841 	 
H 	 41.1219 	 15.7504 	 75.965 	 
H 	 38.5129 	 20.6885 	 82.7662 	 
H 	 45.8034 	 18.6087 	 79.2879 	 
