34

S 	 14.2583 	 15.4345 	 84.2658 	 
C 	 15.4309 	 16.3269 	 83.353 	 
C 	 15.7368 	 15.6877 	 82.1558 	 
C 	 14.9813 	 14.4745 	 81.9659 	 
C 	 14.1157 	 14.2289 	 83.0362 	 
H 	 14.9517 	 13.7697 	 81.1057 	 
C 	 16.654 	 16.2346 	 81.0355 	 
H 	 17.2212 	 15.4326 	 80.6179 	 
H 	 17.2754 	 16.9973 	 81.4741 	 
C 	 15.9363 	 17.0208 	 79.8568 	 
H 	 15.3308 	 17.7813 	 80.2366 	 
H 	 16.6201 	 17.4852 	 79.1138 	 
C 	 14.9758 	 16.1319 	 78.9839 	 
H 	 14.5504 	 16.799 	 78.1965 	 
H 	 15.4651 	 15.2383 	 78.4371 	 
H 	 14.0739 	 15.7766 	 79.4998 	 
S 	 11.5485 	 13.5817 	 83.6009 	 
C 	 11.0769 	 11.95 	 83.7775 	 
C 	 12.0311 	 11.1031 	 83.3205 	 
C 	 13.2682 	 11.8155 	 83.0612 	 
C 	 13.1815 	 13.1733 	 83.1916 	 
H 	 11.9096 	 10.0493 	 83.2613 	 
C 	 14.5775 	 11.0205 	 82.873 	 
H 	 14.5521 	 10.3936 	 83.6747 	 
H 	 15.4497 	 11.5984 	 83.0496 	 
C 	 14.605 	 10.0705 	 81.6882 	 
H 	 13.7653 	 9.50141 	 81.4689 	 
H 	 15.3959 	 9.40953 	 82.0766 	 
C 	 14.9604 	 10.646 	 80.27 	 
H 	 15.9751 	 11.1012 	 80.3364 	 
H 	 14.1944 	 11.4177 	 79.9679 	 
H 	 15.151 	 9.93665 	 79.421 	 
H 	 16.0242 	 17.2224 	 83.6134 	 
H 	 10.0816 	 11.6251 	 83.9141 	 
