34

S 	 -5.85486 	 41.7947 	 34.665 	 
C 	 -6.83003 	 41.287 	 33.2257 	 
C 	 -6.91662 	 42.3814 	 32.365 	 
C 	 -6.14191 	 43.5137 	 32.767 	 
C 	 -5.49 	 43.3576 	 33.9655 	 
H 	 -5.92637 	 44.4345 	 32.2912 	 
C 	 -7.47258 	 42.202 	 30.9689 	 
H 	 -8.13546 	 43.1361 	 30.9028 	 
H 	 -8.19059 	 41.3914 	 30.9662 	 
C 	 -6.3845 	 42.0108 	 29.8343 	 
H 	 -5.71892 	 42.7806 	 29.8973 	 
H 	 -5.80832 	 41.1084 	 29.9679 	 
C 	 -6.90111 	 41.9641 	 28.4426 	 
H 	 -7.73461 	 42.684 	 28.3841 	 
H 	 -6.11854 	 42.221 	 27.731 	 
H 	 -7.22602 	 40.9562 	 28.2575 	 
S 	 -5.75566 	 44.8755 	 36.1784 	 
C 	 -4.5609 	 46.0976 	 36.618 	 
C 	 -3.45835 	 45.9973 	 35.7449 	 
C 	 -3.64508 	 44.9904 	 34.6718 	 
C 	 -4.8928 	 44.4002 	 34.7628 	 
H 	 -2.57967 	 46.6365 	 35.8701 	 
C 	 -2.63317 	 44.7556 	 33.5554 	 
H 	 -2.18045 	 45.7163 	 33.5018 	 
H 	 -3.14645 	 44.4956 	 32.602 	 
C 	 -1.65475 	 43.6521 	 33.9251 	 
H 	 -2.28769 	 42.8174 	 34.1746 	 
H 	 -1.12959 	 43.7712 	 34.856 	 
C 	 -0.774879 	 43.192 	 32.769 	 
H 	 -1.31236 	 42.7583 	 31.8858 	 
H 	 -0.279574 	 42.2391 	 33.0949 	 
H 	 -0.0567487 	 43.881 	 32.3951 	 
H 	 -7.46879 	 40.4251 	 33.2768 	 
H 	 -4.53672 	 46.7106 	 37.4925 	 
