34

S 	 -23.5418 	 47.3272 	 62.8729 	 
C 	 -23.0799 	 48.9088 	 62.3206 	 
C 	 -23.0506 	 49.8301 	 63.4314 	 
C 	 -23.4712 	 49.2006 	 64.6832 	 
C 	 -23.5968 	 47.8003 	 64.589 	 
H 	 -23.6418 	 49.6798 	 65.6487 	 
C 	 -22.6537 	 51.3153 	 63.2852 	 
H 	 -23.3262 	 52.0016 	 63.7184 	 
H 	 -22.7544 	 51.6532 	 62.2894 	 
C 	 -21.244 	 51.6238 	 63.8227 	 
H 	 -21.149 	 52.7107 	 63.7738 	 
H 	 -21.2351 	 51.3826 	 64.8347 	 
C 	 -20.1257 	 50.9785 	 63.0088 	 
H 	 -20.3135 	 51.1599 	 61.9525 	 
H 	 -19.2513 	 51.4803 	 63.2932 	 
H 	 -19.9491 	 49.8659 	 63.2572 	 
S 	 -25.8161 	 46.9436 	 65.9117 	 
C 	 -25.7019 	 46.0177 	 67.4251 	 
C 	 -24.3542 	 45.9966 	 67.8391 	 
C 	 -23.4977 	 46.644 	 66.8988 	 
C 	 -24.1367 	 47.0556 	 65.7351 	 
H 	 -23.9416 	 45.7741 	 68.852 	 
C 	 -22.0037 	 46.7078 	 67.0973 	 
H 	 -21.6609 	 47.6141 	 66.5132 	 
H 	 -21.5517 	 45.937 	 66.5895 	 
C 	 -21.3099 	 46.7945 	 68.4696 	 
H 	 -20.2753 	 46.7921 	 68.2525 	 
H 	 -21.5921 	 45.8051 	 68.8801 	 
C 	 -21.7205 	 47.8216 	 69.5381 	 
H 	 -22.766 	 47.7105 	 69.8635 	 
H 	 -21.7571 	 48.8648 	 69.1896 	 
H 	 -20.9529 	 47.813 	 70.3734 	 
H 	 -22.7314 	 49.1668 	 61.3333 	 
H 	 -26.4887 	 45.9695 	 68.141 	 
