34

S 	 -11.2042 	 -5.27082 	 85.4826 	 
C 	 -10.7743 	 -5.64721 	 87.1087 	 
C 	 -11.8955 	 -6.24992 	 87.769 	 
C 	 -13.055 	 -6.44449 	 86.8737 	 
C 	 -12.8599 	 -5.98947 	 85.6042 	 
H 	 -14.0568 	 -6.82789 	 87.177 	 
C 	 -11.9332 	 -6.72857 	 89.1788 	 
H 	 -12.9133 	 -6.41038 	 89.5519 	 
H 	 -11.247 	 -6.08489 	 89.6219 	 
C 	 -11.5016 	 -8.21481 	 89.4505 	 
H 	 -12.1721 	 -8.90429 	 88.9229 	 
H 	 -10.4972 	 -8.41439 	 89.0978 	 
C 	 -11.6423 	 -8.57607 	 90.928 	 
H 	 -12.6311 	 -8.75933 	 91.4006 	 
H 	 -11.0764 	 -9.4775 	 91.0424 	 
H 	 -11.1529 	 -7.865 	 91.5174 	 
S 	 -13.8784 	 -4.95393 	 83.2129 	 
C 	 -14.9355 	 -5.97301 	 82.2247 	 
C 	 -15.1812 	 -7.19528 	 82.8237 	 
C 	 -14.5095 	 -7.36284 	 84.1237 	 
C 	 -13.7828 	 -6.20685 	 84.473 	 
H 	 -15.7915 	 -7.93765 	 82.3373 	 
C 	 -14.5233 	 -8.61101 	 84.855 	 
H 	 -13.8135 	 -8.57651 	 85.7074 	 
H 	 -14.1359 	 -9.37027 	 84.1709 	 
C 	 -15.9416 	 -9.06948 	 85.4127 	 
H 	 -16.6027 	 -8.83303 	 84.5628 	 
H 	 -16.1937 	 -8.46815 	 86.3524 	 
C 	 -15.9851 	 -10.5306 	 85.7323 	 
H 	 -16.9839 	 -10.8575 	 85.7947 	 
H 	 -15.5827 	 -10.5636 	 86.7207 	 
H 	 -15.3349 	 -11.1277 	 85.1099 	 
H 	 -9.74219 	 -5.65379 	 87.4696 	 
H 	 -15.3324 	 -5.58995 	 81.2981 	 
