34

S 	 -15.8827 	 -10.3832 	 91.9792 	 
C 	 -17.2002 	 -9.37526 	 91.305 	 
C 	 -16.8521 	 -9.03281 	 90.0032 	 
C 	 -15.6076 	 -9.53726 	 89.5134 	 
C 	 -14.9879 	 -10.3019 	 90.4814 	 
H 	 -15.203 	 -9.3704 	 88.5254 	 
C 	 -17.7144 	 -8.14035 	 89.1432 	 
H 	 -18.7236 	 -7.99926 	 89.6628 	 
H 	 -17.8434 	 -8.66848 	 88.3281 	 
C 	 -17.0973 	 -6.7976 	 88.9047 	 
H 	 -16.9791 	 -6.22421 	 89.8921 	 
H 	 -16.0878 	 -6.89614 	 88.5747 	 
C 	 -17.8625 	 -5.97782 	 87.9254 	 
H 	 -18.3007 	 -6.64758 	 87.1909 	 
H 	 -18.7198 	 -5.63107 	 88.5023 	 
H 	 -17.1744 	 -5.21769 	 87.6075 	 
S 	 -12.5464 	 -10.6415 	 91.5723 	 
C 	 -11.1769 	 -11.1713 	 90.5795 	 
C 	 -11.6079 	 -11.7174 	 89.3782 	 
C 	 -13.0594 	 -11.5761 	 89.1857 	 
C 	 -13.7015 	 -10.9151 	 90.2712 	 
H 	 -11 	 -12.0062 	 88.5381 	 
C 	 -13.7368 	 -11.9703 	 87.8902 	 
H 	 -12.9865 	 -12.273 	 87.1272 	 
H 	 -14.1101 	 -11.0057 	 87.52 	 
C 	 -14.8546 	 -12.972 	 88.0495 	 
H 	 -15.5079 	 -12.9063 	 87.1784 	 
H 	 -15.3991 	 -12.7899 	 88.9599 	 
C 	 -14.3023 	 -14.3613 	 88.2175 	 
H 	 -14.9748 	 -15.1962 	 88.4735 	 
H 	 -13.5624 	 -14.4301 	 89.0067 	 
H 	 -13.804 	 -14.6512 	 87.3627 	 
H 	 -18.0729 	 -8.93589 	 91.7548 	 
H 	 -10.124 	 -11.1741 	 90.9323 	 
