34

S 	 14.4019 	 10.4305 	 88.9181 	 
C 	 15.8883 	 9.79463 	 88.4391 	 
C 	 16.0057 	 8.41 	 88.5555 	 
C 	 14.7394 	 7.84414 	 88.8751 	 
C 	 13.7068 	 8.76465 	 89.0139 	 
H 	 14.5594 	 6.85646 	 88.9756 	 
C 	 17.3066 	 7.64198 	 88.4695 	 
H 	 18.052 	 8.23127 	 88.9606 	 
H 	 17.4784 	 7.37987 	 87.3965 	 
C 	 17.3008 	 6.25321 	 89.173 	 
H 	 17.125 	 6.41176 	 90.1545 	 
H 	 16.4378 	 5.70774 	 88.7573 	 
C 	 18.5148 	 5.45481 	 88.9741 	 
H 	 18.3792 	 4.43754 	 89.3702 	 
H 	 18.6496 	 5.24213 	 87.8736 	 
H 	 19.288 	 6.0404 	 89.4207 	 
S 	 11.2735 	 9.86098 	 88.9843 	 
C 	 10.0528 	 9.29409 	 89.9918 	 
C 	 10.4377 	 8.22643 	 90.7183 	 
C 	 11.6851 	 7.70174 	 90.3561 	 
C 	 12.3508 	 8.61514 	 89.4949 	 
H 	 9.75192 	 7.69244 	 91.3386 	 
C 	 12.2112 	 6.38478 	 90.8897 	 
H 	 13.3127 	 6.49763 	 90.7396 	 
H 	 11.8556 	 5.57434 	 90.2617 	 
C 	 12.0468 	 6.13597 	 92.4287 	 
H 	 10.9645 	 6.19079 	 92.6148 	 
H 	 12.387 	 7.02602 	 92.9068 	 
C 	 12.3874 	 4.74654 	 92.875 	 
H 	 11.8693 	 4.4758 	 93.8178 	 
H 	 13.4826 	 4.57619 	 92.9518 	 
H 	 12.0118 	 4.02491 	 92.1146 	 
H 	 16.8233 	 10.3812 	 88.3411 	 
H 	 9.00868 	 9.69117 	 89.9294 	 
