34

S 	 19.2429 	 1.30328 	 86.9121 	 
C 	 19.4216 	 2.97254 	 86.4933 	 
C 	 18.2423 	 3.69947 	 86.7211 	 
C 	 17.1864 	 2.85204 	 87.1973 	 
C 	 17.5723 	 1.54224 	 87.2967 	 
H 	 16.23 	 3.18136 	 87.6274 	 
C 	 18.1207 	 5.19182 	 86.5511 	 
H 	 19.0082 	 5.7428 	 86.883 	 
H 	 17.2258 	 5.66997 	 86.9928 	 
C 	 17.9417 	 5.53331 	 85.0363 	 
H 	 18.7694 	 5.15253 	 84.4458 	 
H 	 16.9778 	 5.1615 	 84.7572 	 
C 	 17.7608 	 7.0695 	 84.8684 	 
H 	 17.7654 	 7.26835 	 83.8438 	 
H 	 16.795 	 7.48774 	 85.242 	 
H 	 18.5879 	 7.59433 	 85.3325 	 
S 	 17.2547 	 -0.262426 	 89.3686 	 
C 	 16.0716 	 -1.52794 	 89.2225 	 
C 	 15.215 	 -1.29781 	 88.1792 	 
C 	 15.6532 	 -0.25695 	 87.3088 	 
C 	 16.7569 	 0.419394 	 87.8329 	 
H 	 14.3756 	 -1.89346 	 88.0967 	 
C 	 15.0135 	 0.14572 	 85.9723 	 
H 	 15.3488 	 -0.589772 	 85.3023 	 
H 	 15.3538 	 1.09776 	 85.5953 	 
C 	 13.4498 	 0.325157 	 86.1195 	 
H 	 13.3612 	 1.11892 	 86.8053 	 
H 	 13.0288 	 -0.57497 	 86.6072 	 
C 	 12.7518 	 0.660123 	 84.7395 	 
H 	 13.1101 	 1.59854 	 84.4158 	 
H 	 11.7454 	 0.947042 	 84.9712 	 
H 	 12.9042 	 -0.106411 	 83.9731 	 
H 	 20.3562 	 3.45993 	 86.2574 	 
H 	 15.9092 	 -2.27961 	 89.9778 	 
