34

S 	 -8.63267 	 46.9515 	 41.5936 	 
C 	 -9.06186 	 47.5363 	 43.1539 	 
C 	 -8.85197 	 48.8757 	 43.2526 	 
C 	 -8.11182 	 49.3771 	 42.153 	 
C 	 -7.99246 	 48.5323 	 41.0689 	 
H 	 -7.79997 	 50.4196 	 42.1256 	 
C 	 -9.2232 	 49.7235 	 44.3832 	 
H 	 -8.39269 	 50.0635 	 44.8455 	 
H 	 -9.73017 	 49.083 	 45.1218 	 
C 	 -10.153 	 50.8888 	 44.1289 	 
H 	 -10.2484 	 51.3899 	 45.1214 	 
H 	 -9.6668 	 51.5558 	 43.4248 	 
C 	 -11.5221 	 50.4743 	 43.5542 	 
H 	 -11.9598 	 51.4475 	 43.173 	 
H 	 -11.379 	 49.8377 	 42.6221 	 
H 	 -12.2603 	 49.9634 	 44.242 	 
S 	 -6.72223 	 47.2567 	 39.0761 	 
C 	 -5.92789 	 48.0839 	 37.8487 	 
C 	 -5.84841 	 49.4816 	 38.0831 	 
C 	 -6.56775 	 49.8797 	 39.2676 	 
C 	 -7.13158 	 48.7138 	 39.907 	 
H 	 -5.39061 	 49.9535 	 37.2405 	 
C 	 -6.55874 	 51.3149 	 39.6502 	 
H 	 -7.37337 	 51.5499 	 40.2789 	 
H 	 -6.72539 	 51.8818 	 38.8182 	 
C 	 -5.30661 	 51.8948 	 40.3899 	 
H 	 -4.4132 	 51.7812 	 39.6801 	 
H 	 -5.19164 	 51.2764 	 41.2237 	 
C 	 -5.51579 	 53.3395 	 40.8092 	 
H 	 -5.7494 	 53.9798 	 39.9548 	 
H 	 -4.62037 	 53.7683 	 41.3879 	 
H 	 -6.40468 	 53.3139 	 41.5358 	 
H 	 -9.66698 	 46.9325 	 43.8971 	 
H 	 -5.56369 	 47.5428 	 36.954 	 
