34

S 	 -30.039 	 61.4257 	 111.042 	 
C 	 -29.8441 	 59.8339 	 110.306 	 
C 	 -30.0507 	 58.8262 	 111.226 	 
C 	 -30.1919 	 59.3176 	 112.54 	 
C 	 -30.2667 	 60.6862 	 112.609 	 
H 	 -30.3122 	 58.685 	 113.379 	 
C 	 -30.1139 	 57.4055 	 110.833 	 
H 	 -29.7388 	 57.264 	 109.774 	 
H 	 -31.0802 	 56.964 	 111.004 	 
C 	 -29.2464 	 56.4586 	 111.714 	 
H 	 -29.5406 	 56.592 	 112.77 	 
H 	 -29.4128 	 55.4449 	 111.468 	 
C 	 -27.7231 	 56.7238 	 111.76 	 
H 	 -27.4663 	 57.7131 	 112.16 	 
H 	 -27.2328 	 55.9975 	 112.463 	 
H 	 -27.1767 	 56.6132 	 110.811 	 
S 	 -31.955 	 62.4251 	 113.91 	 
C 	 -31.449 	 63.0525 	 115.541 	 
C 	 -30.2264 	 62.5935 	 115.871 	 
C 	 -29.6324 	 61.7422 	 114.885 	 
C 	 -30.4426 	 61.5622 	 113.741 	 
H 	 -29.8167 	 62.8442 	 116.849 	 
C 	 -28.3079 	 61.0148 	 115.092 	 
H 	 -27.8398 	 60.8638 	 114.172 	 
H 	 -28.6689 	 60.0792 	 115.552 	 
C 	 -27.3006 	 61.6376 	 116.085 	 
H 	 -27.6655 	 61.3951 	 117.104 	 
H 	 -27.357 	 62.7379 	 115.887 	 
C 	 -25.9235 	 61.0831 	 116.004 	 
H 	 -25.4177 	 61.2509 	 115.061 	 
H 	 -25.9076 	 60.0001 	 116.073 	 
H 	 -25.2215 	 61.4781 	 116.746 	 
H 	 -29.5264 	 59.6591 	 109.333 	 
H 	 -32.0038 	 63.7389 	 116.216 	 
