34

S 	 -24.1147 	 49.9017 	 65.8516 	 
C 	 -23.5696 	 50.8195 	 64.411 	 
C 	 -22.4906 	 51.5906 	 64.8022 	 
C 	 -22.149 	 51.4451 	 66.1823 	 
C 	 -22.9515 	 50.6108 	 66.8577 	 
H 	 -21.4834 	 52.1842 	 66.7857 	 
C 	 -21.7907 	 52.4461 	 63.799 	 
H 	 -22.3045 	 53.4475 	 63.7814 	 
H 	 -21.9964 	 51.9521 	 62.8585 	 
C 	 -20.2693 	 52.6664 	 64.058 	 
H 	 -19.8263 	 53.2381 	 63.1833 	 
H 	 -20.1004 	 53.2451 	 64.9827 	 
C 	 -19.5367 	 51.2858 	 64.1542 	 
H 	 -19.828 	 50.6021 	 64.9164 	 
H 	 -19.6306 	 50.6826 	 63.2541 	 
H 	 -18.4699 	 51.4444 	 64.3072 	 
S 	 -24.2403 	 50.6775 	 69.2007 	 
C 	 -23.4046 	 50.5648 	 70.7683 	 
C 	 -22.0544 	 50.3927 	 70.5456 	 
C 	 -21.6961 	 50.4549 	 69.1647 	 
C 	 -22.8007 	 50.434 	 68.2986 	 
H 	 -21.2537 	 50.2332 	 71.3046 	 
C 	 -20.2928 	 50.4138 	 68.755 	 
H 	 -19.6273 	 50.7107 	 69.591 	 
H 	 -20.3118 	 51.3036 	 68.0624 	 
C 	 -19.7768 	 49.1619 	 68.0198 	 
H 	 -20.3998 	 48.9686 	 67.1217 	 
H 	 -20.007 	 48.2982 	 68.6824 	 
C 	 -18.3366 	 49.2011 	 67.7366 	 
H 	 -17.7572 	 49.35 	 68.6165 	 
H 	 -18.1852 	 49.9879 	 66.9631 	 
H 	 -17.9734 	 48.2897 	 67.3134 	 
H 	 -23.9865 	 50.7337 	 63.392 	 
H 	 -23.8936 	 50.8286 	 71.66 	 
