34

S 	 13.362 	 4.06876 	 88.2378 	 
C 	 14.2866 	 5.53202 	 88.551 	 
C 	 13.8681 	 6.57985 	 87.7339 	 
C 	 12.834 	 6.24266 	 86.8203 	 
C 	 12.405 	 4.89232 	 86.9568 	 
H 	 12.369 	 6.96359 	 86.1324 	 
C 	 14.2714 	 8.09 	 87.9369 	 
H 	 14.7206 	 8.44327 	 88.8717 	 
H 	 13.3394 	 8.64181 	 87.7439 	 
C 	 15.1181 	 8.6551 	 86.727 	 
H 	 14.8349 	 8.27161 	 85.7627 	 
H 	 15.075 	 9.77215 	 86.6364 	 
C 	 16.5709 	 8.43335 	 87.0245 	 
H 	 16.8253 	 7.42417 	 87.0978 	 
H 	 17.2194 	 8.85091 	 86.2903 	 
H 	 16.7932 	 8.89366 	 87.9517 	 
S 	 10.4792 	 3.00266 	 87.2025 	 
C 	 9.18047 	 2.7636 	 86.0786 	 
C 	 9.35931 	 3.63052 	 84.9942 	 
C 	 10.4997 	 4.50534 	 85.1486 	 
C 	 11.2601 	 4.23503 	 86.2818 	 
H 	 8.54871 	 3.68597 	 84.2163 	 
C 	 10.892 	 5.67177 	 84.2591 	 
H 	 12.0019 	 5.55405 	 84.0851 	 
H 	 10.769 	 6.56935 	 84.8405 	 
C 	 10.1636 	 5.87714 	 82.9003 	 
H 	 10.2184 	 4.9893 	 82.2488 	 
H 	 10.7667 	 6.58911 	 82.3804 	 
C 	 8.667 	 6.29846 	 83.1414 	 
H 	 8.19382 	 5.6158 	 83.8747 	 
H 	 8.06393 	 6.3434 	 82.1952 	 
H 	 8.65067 	 7.25472 	 83.6561 	 
H 	 15.0811 	 5.71337 	 89.1878 	 
H 	 8.54092 	 1.93478 	 86.111 	 
