34

S 	 -68.1532 	 54.2908 	 133.885 	 
C 	 -67.5822 	 54.401 	 135.522 	 
C 	 -68.3168 	 53.6506 	 136.411 	 
C 	 -69.401 	 52.9949 	 135.774 	 
C 	 -69.4565 	 53.175 	 134.41 	 
H 	 -70.1183 	 52.3646 	 136.222 	 
C 	 -68.1071 	 53.696 	 137.914 	 
H 	 -67.345 	 53.0037 	 138.095 	 
H 	 -69.0329 	 53.3744 	 138.472 	 
C 	 -67.5803 	 55.0287 	 138.516 	 
H 	 -66.7206 	 55.2596 	 137.925 	 
H 	 -68.2908 	 55.8369 	 138.249 	 
C 	 -67.2502 	 54.9294 	 139.997 	 
H 	 -67.0664 	 55.8896 	 140.494 	 
H 	 -68.124 	 54.5911 	 140.581 	 
H 	 -66.4142 	 54.2988 	 140.234 	 
S 	 -69.8169 	 51.6891 	 132.116 	 
C 	 -71.4824 	 51.2631 	 131.605 	 
C 	 -72.423 	 51.7295 	 132.505 	 
C 	 -71.8302 	 52.5963 	 133.525 	 
C 	 -70.4252 	 52.6248 	 133.46 	 
H 	 -73.4849 	 51.529 	 132.436 	 
C 	 -72.6061 	 53.2271 	 134.67 	 
H 	 -73.4465 	 53.7543 	 134.252 	 
H 	 -71.9409 	 53.9348 	 135.06 	 
C 	 -73.1191 	 52.2945 	 135.853 	 
H 	 -73.1715 	 52.8579 	 136.722 	 
H 	 -72.3965 	 51.559 	 136.16 	 
C 	 -74.4647 	 51.601 	 135.559 	 
H 	 -75.2105 	 52.3874 	 135.311 	 
H 	 -74.8116 	 51.027 	 136.37 	 
H 	 -74.4531 	 50.8763 	 134.787 	 
H 	 -66.8413 	 55.105 	 135.801 	 
H 	 -71.7317 	 50.4812 	 130.885 	 
