34

S 	 -2.00684 	 -24.1462 	 58.7585 	 
C 	 -2.56412 	 -23.1549 	 60.1033 	 
C 	 -2.99962 	 -21.8692 	 59.6047 	 
C 	 -2.97979 	 -21.7585 	 58.2101 	 
C 	 -2.59201 	 -22.9567 	 57.5964 	 
H 	 -3.2402 	 -20.9427 	 57.6979 	 
C 	 -3.52411 	 -20.726 	 60.4961 	 
H 	 -3.17388 	 -19.7715 	 60.1494 	 
H 	 -3.11398 	 -20.8245 	 61.5119 	 
C 	 -5.0466 	 -20.6612 	 60.5075 	 
H 	 -5.3375 	 -19.6097 	 60.7906 	 
H 	 -5.44591 	 -20.717 	 59.515 	 
C 	 -5.77641 	 -21.7098 	 61.3955 	 
H 	 -6.79368 	 -21.6078 	 61.1417 	 
H 	 -5.46553 	 -22.7622 	 61.2935 	 
H 	 -5.59448 	 -21.3911 	 62.4357 	 
S 	 -0.896852 	 -23.9503 	 55.6768 	 
C 	 -1.39142 	 -24.0297 	 53.9803 	 
C 	 -2.53578 	 -23.3027 	 53.8265 	 
C 	 -3.10879 	 -22.8107 	 55.0375 	 
C 	 -2.42222 	 -23.2319 	 56.1713 	 
H 	 -2.94114 	 -23.2112 	 52.7871 	 
C 	 -4.39565 	 -22.0309 	 54.9987 	 
H 	 -4.75376 	 -21.8857 	 56.0396 	 
H 	 -5.15197 	 -22.6379 	 54.3956 	 
C 	 -4.23797 	 -20.6031 	 54.4751 	 
H 	 -3.76844 	 -20.5082 	 53.3924 	 
H 	 -3.55815 	 -20.1141 	 55.1251 	 
C 	 -5.56661 	 -19.8392 	 54.4411 	 
H 	 -6.00215 	 -19.7003 	 55.5147 	 
H 	 -6.28353 	 -20.2929 	 53.7677 	 
H 	 -5.33016 	 -18.8434 	 54.0071 	 
H 	 -2.44514 	 -23.5732 	 61.1012 	 
H 	 -0.926931 	 -24.6995 	 53.2441 	 
