34

S 	 8.4744 	 -19.6445 	 85.3609 	 
C 	 7.7388 	 -20.4029 	 86.775 	 
C 	 6.42088 	 -20.0177 	 86.8968 	 
C 	 6.11392 	 -18.954 	 85.9642 	 
C 	 7.15293 	 -18.5227 	 85.2004 	 
H 	 5.17878 	 -18.4305 	 85.932 	 
C 	 5.51714 	 -20.7275 	 87.8817 	 
H 	 5.72405 	 -20.3162 	 88.8973 	 
H 	 5.85143 	 -21.7541 	 87.8417 	 
C 	 3.94441 	 -20.5657 	 87.5419 	 
H 	 3.34369 	 -20.8997 	 88.3548 	 
H 	 3.66402 	 -19.5214 	 87.3846 	 
C 	 3.50294 	 -21.3123 	 86.3064 	 
H 	 4.02554 	 -21.0812 	 85.4424 	 
H 	 3.53817 	 -22.3875 	 86.4647 	 
H 	 2.48153 	 -21.0449 	 86.1253 	 
S 	 7.5443 	 -17.6904 	 82.5627 	 
C 	 6.9569 	 -16.0804 	 82.1797 	 
C 	 6.52057 	 -15.3871 	 83.2814 	 
C 	 6.69256 	 -16.0878 	 84.4621 	 
C 	 7.14301 	 -17.3907 	 84.2606 	 
H 	 6.20057 	 -14.3409 	 83.2175 	 
C 	 6.36258 	 -15.4304 	 85.7788 	 
H 	 6.75807 	 -16.11 	 86.4883 	 
H 	 5.26844 	 -15.4354 	 85.96 	 
C 	 7.05989 	 -14.1001 	 86.0581 	 
H 	 6.91991 	 -13.7615 	 87.0887 	 
H 	 6.57739 	 -13.2604 	 85.5714 	 
C 	 8.53769 	 -13.9682 	 85.6684 	 
H 	 8.5658 	 -13.9942 	 84.6449 	 
H 	 9.05221 	 -14.8296 	 85.9589 	 
H 	 8.9338 	 -13.0787 	 86.1352 	 
H 	 8.17264 	 -21.2278 	 87.3753 	 
H 	 6.93798 	 -15.6186 	 81.1624 	 
