34

S 	 -45.4702 	 55.1834 	 105.976 	 
C 	 -43.7624 	 54.9101 	 105.729 	 
C 	 -43.1147 	 54.9679 	 106.96 	 
C 	 -44.0079 	 55.1253 	 108.065 	 
C 	 -45.3024 	 55.2619 	 107.725 	 
H 	 -43.6255 	 55.1677 	 109.089 	 
C 	 -41.6816 	 54.7905 	 107.095 	 
H 	 -41.3448 	 54.1044 	 106.292 	 
H 	 -41.4657 	 54.2433 	 108.038 	 
C 	 -40.9196 	 56.1158 	 106.892 	 
H 	 -41.0936 	 56.8099 	 107.768 	 
H 	 -39.8579 	 55.7466 	 106.93 	 
C 	 -41.1625 	 56.9281 	 105.591 	 
H 	 -42.2292 	 57.3474 	 105.587 	 
H 	 -40.5732 	 57.8564 	 105.534 	 
H 	 -40.9634 	 56.4726 	 104.589 	 
S 	 -47.8559 	 54.5885 	 108.36 	 
C 	 -48.7133 	 55.4096 	 109.581 	 
C 	 -47.9058 	 56.3158 	 110.193 	 
C 	 -46.5325 	 56.3543 	 109.8 	 
C 	 -46.3856 	 55.4761 	 108.642 	 
H 	 -48.3467 	 57.0034 	 110.867 	 
C 	 -45.5435 	 57.3936 	 110.291 	 
H 	 -44.6896 	 56.8232 	 110.514 	 
H 	 -45.8613 	 57.705 	 111.317 	 
C 	 -45.2425 	 58.6517 	 109.405 	 
H 	 -45.2218 	 58.289 	 108.321 	 
H 	 -44.2889 	 59.208 	 109.652 	 
C 	 -46.3452 	 59.7629 	 109.483 	 
H 	 -46.1419 	 60.5907 	 108.788 	 
H 	 -46.391 	 60.1733 	 110.51 	 
H 	 -47.3235 	 59.2579 	 109.334 	 
H 	 -43.2431 	 54.8364 	 104.747 	 
H 	 -49.8084 	 55.4767 	 109.483 	 
