34

S 	 -36.0419 	 76.0267 	 153.318 	 
C 	 -34.4451 	 76.5899 	 153.262 	 
C 	 -33.5667 	 75.6575 	 152.733 	 
C 	 -34.2095 	 74.4169 	 152.374 	 
C 	 -35.5937 	 74.5333 	 152.503 	 
H 	 -33.7345 	 73.5116 	 151.956 	 
C 	 -32.1014 	 75.8838 	 152.404 	 
H 	 -31.8105 	 76.8576 	 152.733 	 
H 	 -32.0456 	 75.9619 	 151.323 	 
C 	 -31.1054 	 74.8514 	 152.969 	 
H 	 -31.2128 	 74.789 	 154.053 	 
H 	 -31.4136 	 73.8884 	 152.476 	 
C 	 -29.639 	 75.2646 	 152.623 	 
H 	 -29.2636 	 76.0016 	 153.31 	 
H 	 -28.957 	 74.4845 	 152.794 	 
H 	 -29.5368 	 75.5712 	 151.626 	 
S 	 -37.6178 	 74.4834 	 150.724 	 
C 	 -38.4934 	 73.0239 	 150.507 	 
C 	 -37.8048 	 71.9155 	 150.946 	 
C 	 -36.7148 	 72.3051 	 151.81 	 
C 	 -36.5658 	 73.6895 	 151.861 	 
H 	 -38.2923 	 70.8956 	 150.789 	 
C 	 -35.954 	 71.2299 	 152.617 	 
H 	 -34.9668 	 71.6955 	 152.848 	 
H 	 -35.6669 	 70.3975 	 151.933 	 
C 	 -36.6562 	 70.6947 	 153.86 	 
H 	 -36.0516 	 69.8692 	 154.253 	 
H 	 -37.6323 	 70.2996 	 153.642 	 
C 	 -36.8039 	 71.642 	 155.053 	 
H 	 -36.9426 	 71.1436 	 156.083 	 
H 	 -37.7283 	 72.2491 	 154.994 	 
H 	 -35.9307 	 72.2043 	 155.052 	 
H 	 -34.2328 	 77.5904 	 153.635 	 
H 	 -39.4478 	 72.879 	 150.024 	 
