34

S 	 41.913 	 12.7443 	 82.9383 	 
C 	 40.5182 	 11.7493 	 83.1563 	 
C 	 40.9306 	 10.454 	 83.4795 	 
C 	 42.3639 	 10.2854 	 83.4363 	 
C 	 43.0085 	 11.4548 	 83.1809 	 
H 	 42.985 	 9.3465 	 83.4459 	 
C 	 39.977 	 9.32066 	 83.6547 	 
H 	 40.2153 	 8.52885 	 83.0345 	 
H 	 39.054 	 9.66122 	 83.157 	 
C 	 39.6941 	 9.05013 	 85.1498 	 
H 	 40.5589 	 8.6563 	 85.7394 	 
H 	 39.3989 	 10.0143 	 85.5979 	 
C 	 38.4244 	 8.23475 	 85.3743 	 
H 	 37.7174 	 8.29315 	 84.5315 	 
H 	 38.6486 	 7.1915 	 85.4804 	 
H 	 37.8646 	 8.56511 	 86.2493 	 
S 	 45.0396 	 12.1363 	 81.391 	 
C 	 46.6634 	 12.2959 	 81.9715 	 
C 	 46.7558 	 11.924 	 83.2557 	 
C 	 45.5617 	 11.3998 	 83.8801 	 
C 	 44.4915 	 11.565 	 82.9908 	 
H 	 47.6945 	 12.0368 	 83.7146 	 
C 	 45.389 	 11.0798 	 85.3512 	 
H 	 46.2435 	 10.403 	 85.5154 	 
H 	 44.5016 	 10.4971 	 85.5243 	 
C 	 45.5188 	 12.252 	 86.3686 	 
H 	 46.595 	 12.4123 	 86.6397 	 
H 	 45.0068 	 11.865 	 87.2125 	 
C 	 44.6533 	 13.4698 	 85.9318 	 
H 	 44.6428 	 14.127 	 86.8162 	 
H 	 43.64 	 13.211 	 85.7016 	 
H 	 45.0483 	 14.0216 	 85.0867 	 
H 	 39.5253 	 12.1669 	 83.0522 	 
H 	 47.4499 	 12.6895 	 81.4002 	 
