34

S 	 46.0764 	 6.08144 	 87.5598 	 
C 	 46.6958 	 5.72044 	 85.8599 	 
C 	 46.8897 	 4.36178 	 85.7586 	 
C 	 46.5509 	 3.62989 	 86.909 	 
C 	 46.1947 	 4.40621 	 87.998 	 
H 	 46.6624 	 2.5295 	 87.0073 	 
C 	 47.3318 	 3.65513 	 84.4353 	 
H 	 46.5157 	 3.60067 	 83.6455 	 
H 	 47.5379 	 2.58935 	 84.61 	 
C 	 48.6548 	 4.16246 	 83.8236 	 
H 	 48.526 	 5.26396 	 83.6686 	 
H 	 49.4408 	 4.01748 	 84.551 	 
C 	 48.9683 	 3.50227 	 82.5181 	 
H 	 50.0384 	 3.62042 	 82.4673 	 
H 	 48.6054 	 2.44153 	 82.4394 	 
H 	 48.6542 	 4.05453 	 81.664 	 
S 	 45.9441 	 4.97854 	 90.7772 	 
C 	 45.0133 	 3.96328 	 91.7734 	 
C 	 44.9392 	 2.66515 	 91.1828 	 
C 	 45.4755 	 2.65162 	 89.8162 	 
C 	 45.7692 	 3.92015 	 89.3363 	 
H 	 44.6973 	 1.83946 	 91.7934 	 
C 	 45.4924 	 1.38443 	 89.0239 	 
H 	 45.2295 	 0.682222 	 89.7174 	 
H 	 46.5153 	 1.1067 	 88.6789 	 
C 	 44.3976 	 1.17071 	 87.9767 	 
H 	 44.5648 	 1.96191 	 87.2003 	 
H 	 43.5224 	 1.36761 	 88.5391 	 
C 	 44.283 	 -0.183998 	 87.2174 	 
H 	 45.3148 	 -0.363882 	 86.9412 	 
H 	 43.755 	 0.0269587 	 86.3023 	 
H 	 43.9409 	 -1.04504 	 87.8545 	 
H 	 46.8858 	 6.38918 	 85.0126 	 
H 	 44.7645 	 4.15252 	 92.8263 	 
