34

S 	 -38.0364 	 48.4167 	 96.1508 	 
C 	 -37.2888 	 48.0365 	 97.7085 	 
C 	 -38.1998 	 47.4546 	 98.6332 	 
C 	 -39.4405 	 47.1494 	 97.9803 	 
C 	 -39.5672 	 47.7253 	 96.7022 	 
H 	 -40.2801 	 46.6617 	 98.3574 	 
C 	 -37.7858 	 46.8973 	 100.061 	 
H 	 -37.3253 	 45.917 	 100.055 	 
H 	 -38.691 	 46.6318 	 100.633 	 
C 	 -36.8266 	 47.7814 	 100.835 	 
H 	 -36.3158 	 47.2596 	 101.634 	 
H 	 -35.971 	 47.8722 	 100.168 	 
C 	 -37.4382 	 49.0841 	 101.248 	 
H 	 -38.3744 	 48.9705 	 101.684 	 
H 	 -36.6904 	 49.5718 	 101.909 	 
H 	 -37.5332 	 49.6955 	 100.356 	 
S 	 -40.2836 	 46.513 	 94.1941 	 
C 	 -41.933 	 46.4281 	 93.7266 	 
C 	 -42.7364 	 46.8949 	 94.7965 	 
C 	 -42.0347 	 47.2683 	 95.9595 	 
C 	 -40.6519 	 47.3393 	 95.6996 	 
H 	 -43.8626 	 46.9129 	 94.7494 	 
C 	 -42.7839 	 47.755 	 97.1932 	 
H 	 -43.4468 	 48.4687 	 96.7943 	 
H 	 -42.0249 	 48.2661 	 97.8007 	 
C 	 -43.4765 	 46.732 	 98.1156 	 
H 	 -42.8287 	 45.8972 	 98.3416 	 
H 	 -44.3174 	 46.2704 	 97.5947 	 
C 	 -43.8623 	 47.4352 	 99.4479 	 
H 	 -42.9846 	 47.7785 	 99.9384 	 
H 	 -44.3595 	 46.7944 	 100.114 	 
H 	 -44.5214 	 48.2693 	 99.3108 	 
H 	 -36.2999 	 48.2105 	 98.0145 	 
H 	 -42.2663 	 46.1941 	 92.7613 	 
