34

S 	 -64.0135 	 50.7635 	 121.435 	 
C 	 -63.3036 	 50.3502 	 123.027 	 
C 	 -64.2151 	 49.9438 	 123.943 	 
C 	 -65.5632 	 50.1663 	 123.387 	 
C 	 -65.5662 	 50.5458 	 122.074 	 
H 	 -66.5487 	 50.0943 	 123.803 	 
C 	 -63.942 	 49.5245 	 125.34 	 
H 	 -63.5062 	 50.5139 	 125.791 	 
H 	 -63.102 	 48.8049 	 125.188 	 
C 	 -65.1096 	 48.9922 	 126.258 	 
H 	 -65.9613 	 49.6739 	 126.287 	 
H 	 -65.3938 	 48.046 	 125.826 	 
C 	 -65.0214 	 48.7009 	 127.803 	 
H 	 -65.818 	 48.1102 	 128.255 	 
H 	 -64.0912 	 48.2008 	 128.014 	 
H 	 -64.9331 	 49.6572 	 128.33 	 
S 	 -66.853 	 52.6104 	 120.904 	 
C 	 -68.4108 	 52.3709 	 120.012 	 
C 	 -68.7522 	 51.0034 	 120.103 	 
C 	 -67.8185 	 50.2166 	 120.844 	 
C 	 -66.7349 	 50.8979 	 121.335 	 
H 	 -69.6949 	 50.6636 	 119.615 	 
C 	 -68.0134 	 48.7115 	 121.08 	 
H 	 -69.0993 	 48.5693 	 121.061 	 
H 	 -67.8291 	 48.4943 	 122.146 	 
C 	 -67.2863 	 47.7549 	 120.175 	 
H 	 -66.2117 	 47.8144 	 120.249 	 
H 	 -67.6154 	 47.8906 	 119.172 	 
C 	 -67.5722 	 46.2781 	 120.492 	 
H 	 -67.4171 	 45.7533 	 119.557 	 
H 	 -68.6075 	 46.0066 	 120.765 	 
H 	 -66.8372 	 45.8073 	 121.169 	 
H 	 -62.2407 	 50.3884 	 123.273 	 
H 	 -68.9345 	 53.0164 	 119.336 	 
