34

S 	 -41.5535 	 33.1382 	 84.2941 	 
C 	 -42.8622 	 34.2366 	 84.1158 	 
C 	 -43.8674 	 33.7571 	 83.3416 	 
C 	 -43.6356 	 32.4245 	 82.9816 	 
C 	 -42.4366 	 31.8958 	 83.4519 	 
H 	 -44.1892 	 31.7364 	 82.3519 	 
C 	 -45.085 	 34.563 	 82.8641 	 
H 	 -44.9842 	 34.4095 	 81.8052 	 
H 	 -45.002 	 35.6066 	 83.0297 	 
C 	 -46.4951 	 34.0393 	 83.2157 	 
H 	 -46.3529 	 32.9809 	 83.2001 	 
H 	 -46.8205 	 34.3165 	 84.2284 	 
C 	 -47.6023 	 34.6308 	 82.321 	 
H 	 -47.3617 	 34.3128 	 81.2827 	 
H 	 -48.6439 	 34.3124 	 82.4842 	 
H 	 -47.6993 	 35.7066 	 82.415 	 
S 	 -40.5267 	 30.5727 	 81.9157 	 
C 	 -40.423 	 28.8344 	 81.9086 	 
C 	 -41.2782 	 28.286 	 82.8236 	 
C 	 -42.0881 	 29.2594 	 83.5165 	 
C 	 -41.8057 	 30.597 	 83.1338 	 
H 	 -41.4107 	 27.1842 	 82.9959 	 
C 	 -43.0491 	 28.8935 	 84.6699 	 
H 	 -43.5072 	 29.7363 	 85.2419 	 
H 	 -42.3996 	 28.393 	 85.4058 	 
C 	 -44.1371 	 27.9477 	 84.2815 	 
H 	 -44.5694 	 27.4761 	 85.1512 	 
H 	 -43.7025 	 27.2284 	 83.5692 	 
C 	 -45.2945 	 28.6215 	 83.5698 	 
H 	 -45.0306 	 29.0429 	 82.6179 	 
H 	 -45.6831 	 29.439 	 84.2056 	 
H 	 -46.1567 	 27.9348 	 83.475 	 
H 	 -42.8139 	 35.2803 	 84.4874 	 
H 	 -39.7368 	 28.3318 	 81.3062 	 
