34

S 	 -89.0399 	 48.8177 	 129.813 	 
C 	 -90.1715 	 48.6185 	 128.46 	 
C 	 -89.4895 	 48.354 	 127.301 	 
C 	 -88.1186 	 47.9926 	 127.558 	 
C 	 -87.7179 	 48.1069 	 128.881 	 
H 	 -87.5638 	 47.6082 	 126.794 	 
C 	 -90.1783 	 48.412 	 125.952 	 
H 	 -89.7895 	 49.2692 	 125.356 	 
H 	 -91.2086 	 48.6576 	 126.22 	 
C 	 -90.1879 	 47.1331 	 125.095 	 
H 	 -90.8198 	 47.4218 	 124.315 	 
H 	 -89.1965 	 46.8977 	 124.645 	 
C 	 -90.6077 	 45.7871 	 125.798 	 
H 	 -91.3879 	 45.9798 	 126.536 	 
H 	 -90.9219 	 45.0334 	 125.111 	 
H 	 -89.7278 	 45.406 	 126.311 	 
S 	 -86.6257 	 46.1982 	 130.464 	 
C 	 -84.8765 	 46.1952 	 130.827 	 
C 	 -84.3019 	 47.2925 	 130.236 	 
C 	 -85.1756 	 48.0589 	 129.444 	 
C 	 -86.5071 	 47.6354 	 129.559 	 
H 	 -83.2752 	 47.4405 	 130.362 	 
C 	 -84.6552 	 49.0815 	 128.436 	 
H 	 -83.7741 	 49.4043 	 128.919 	 
H 	 -85.3113 	 49.9585 	 128.363 	 
C 	 -84.3623 	 48.3995 	 127.045 	 
H 	 -85.216 	 47.8068 	 126.583 	 
H 	 -83.53 	 47.686 	 127.118 	 
C 	 -83.9636 	 49.4388 	 126.001 	 
H 	 -83.941 	 48.9849 	 124.981 	 
H 	 -83.0056 	 49.8078 	 126.129 	 
H 	 -84.6957 	 50.1963 	 125.982 	 
H 	 -91.2183 	 49.0133 	 128.446 	 
H 	 -84.2439 	 45.4689 	 131.339 	 
