34

S 	 -37.118 	 -1.77972 	 97.9812 	 
C 	 -35.5234 	 -1.01244 	 98.1116 	 
C 	 -35.1697 	 -0.482378 	 96.8895 	 
C 	 -36.2963 	 -0.462992 	 95.9276 	 
C 	 -37.4303 	 -1.11711 	 96.3889 	 
H 	 -36.3421 	 0.0053658 	 94.953 	 
C 	 -33.8135 	 0.155511 	 96.573 	 
H 	 -33.4998 	 0.23877 	 95.5039 	 
H 	 -33.0133 	 -0.445468 	 96.8853 	 
C 	 -33.7499 	 1.5766 	 97.2675 	 
H 	 -34.7081 	 2.21755 	 97.1973 	 
H 	 -33.7289 	 1.28028 	 98.2827 	 
C 	 -32.4901 	 2.45264 	 97.0717 	 
H 	 -32.358 	 2.61025 	 96.0083 	 
H 	 -32.5575 	 3.37027 	 97.681 	 
H 	 -31.5862 	 1.92554 	 97.3698 	 
S 	 -40.0606 	 -0.649557 	 96.2172 	 
C 	 -40.8205 	 -0.597278 	 94.6765 	 
C 	 -40.0323 	 -1.21515 	 93.6912 	 
C 	 -38.6908 	 -1.46673 	 94.1622 	 
C 	 -38.6022 	 -1.20951 	 95.5336 	 
H 	 -40.4662 	 -1.34051 	 92.7236 	 
C 	 -37.5964 	 -1.99411 	 93.2486 	 
H 	 -36.753 	 -2.23115 	 93.8871 	 
H 	 -37.3101 	 -1.10485 	 92.6551 	 
C 	 -37.8631 	 -3.22556 	 92.4701 	 
H 	 -37.1448 	 -3.53851 	 91.7394 	 
H 	 -38.8578 	 -3.137 	 92.0245 	 
C 	 -37.8551 	 -4.52914 	 93.2949 	 
H 	 -38.4529 	 -4.3785 	 94.2169 	 
H 	 -36.8534 	 -4.77434 	 93.5804 	 
H 	 -38.2778 	 -5.37161 	 92.7425 	 
H 	 -34.8926 	 -0.856413 	 98.9659 	 
H 	 -41.9339 	 -0.414596 	 94.642 	 
