34

S 	 -14.869 	 38.0282 	 37.9431 	 
C 	 -14.238 	 38.1185 	 39.5896 	 
C 	 -14.2938 	 36.8811 	 40.2305 	 
C 	 -14.7348 	 35.8304 	 39.3106 	 
C 	 -15.0686 	 36.3436 	 38.0846 	 
H 	 -14.7188 	 34.7632 	 39.5311 	 
C 	 -13.9589 	 36.5458 	 41.6951 	 
H 	 -13.4954 	 35.5259 	 41.6742 	 
H 	 -14.9186 	 36.4894 	 42.1888 	 
C 	 -12.8327 	 37.3977 	 42.3723 	 
H 	 -13.1605 	 38.4231 	 42.65 	 
H 	 -12.5387 	 36.92 	 43.2619 	 
C 	 -11.535 	 37.3866 	 41.4346 	 
H 	 -11.2363 	 36.3364 	 41.2224 	 
H 	 -11.6966 	 37.7649 	 40.4501 	 
H 	 -10.7592 	 38.0411 	 41.8604 	 
S 	 -14.4099 	 35.3046 	 35.6766 	 
C 	 -15.5228 	 34.2531 	 34.889 	 
C 	 -16.7255 	 34.2716 	 35.5477 	 
C 	 -16.7002 	 35.0446 	 36.6996 	 
C 	 -15.4803 	 35.5802 	 36.976 	 
H 	 -17.4687 	 33.5972 	 35.1602 	 
C 	 -17.9437 	 35.091 	 37.5261 	 
H 	 -17.7023 	 34.7866 	 38.5397 	 
H 	 -18.5498 	 34.3072 	 37.2541 	 
C 	 -18.6183 	 36.4711 	 37.2947 	 
H 	 -18.793 	 36.691 	 36.2185 	 
H 	 -17.9874 	 37.3288 	 37.5124 	 
C 	 -19.9531 	 36.5877 	 38.0747 	 
H 	 -20.5023 	 37.4991 	 37.8233 	 
H 	 -19.9217 	 36.5067 	 39.1691 	 
H 	 -20.6668 	 35.7873 	 37.7583 	 
H 	 -14.1585 	 39.0073 	 40.1159 	 
H 	 -15.2944 	 33.719 	 33.9665 	 
