34

S 	 42.5207 	 14.7728 	 73.7846 	 
C 	 41.0048 	 14.7251 	 74.5565 	 
C 	 41.0783 	 15.0321 	 75.8936 	 
C 	 42.3147 	 15.7579 	 76.1796 	 
C 	 43.1121 	 15.8493 	 75.0426 	 
H 	 42.533 	 16.2548 	 77.078 	 
C 	 39.983 	 14.8551 	 76.9263 	 
H 	 39.0174 	 14.6781 	 76.4606 	 
H 	 39.8914 	 15.7421 	 77.4389 	 
C 	 40.2208 	 13.5386 	 77.789 	 
H 	 39.9297 	 12.6967 	 77.1519 	 
H 	 41.2951 	 13.4351 	 78.1394 	 
C 	 39.2506 	 13.5569 	 79.0338 	 
H 	 38.1776 	 13.6253 	 78.7525 	 
H 	 39.4487 	 12.6913 	 79.5698 	 
H 	 39.5489 	 14.4175 	 79.6538 	 
S 	 45.9243 	 15.3352 	 74.8024 	 
C 	 46.9603 	 16.7345 	 74.6912 	 
C 	 46.2683 	 17.9051 	 74.868 	 
C 	 44.845 	 17.688 	 75.0968 	 
C 	 44.4676 	 16.3617 	 74.9498 	 
H 	 46.7776 	 18.8285 	 74.8168 	 
C 	 43.9544 	 18.9047 	 75.3244 	 
H 	 43.1153 	 18.8065 	 74.677 	 
H 	 44.4925 	 19.8351 	 75.0517 	 
C 	 43.5668 	 19.0974 	 76.8239 	 
H 	 44.5224 	 19.1951 	 77.4391 	 
H 	 42.9184 	 18.2593 	 77.2156 	 
C 	 42.5879 	 20.2546 	 77.0307 	 
H 	 41.6511 	 20.009 	 76.4872 	 
H 	 43.1408 	 21.052 	 76.5744 	 
H 	 42.3509 	 20.465 	 77.9697 	 
H 	 40.1763 	 14.3001 	 74.0454 	 
H 	 48.0308 	 16.6278 	 74.5128 	 
