34

S 	 23.7304 	 2.92606 	 76.4939 	 
C 	 23.5616 	 4.64286 	 76.6606 	 
C 	 22.6111 	 5.14298 	 75.7848 	 
C 	 21.8118 	 4.08579 	 75.2743 	 
C 	 22.3995 	 2.86371 	 75.4672 	 
H 	 20.9238 	 4.21497 	 74.7118 	 
C 	 22.3041 	 6.62171 	 75.5309 	 
H 	 21.5954 	 6.7417 	 74.7093 	 
H 	 23.2215 	 7.16839 	 75.2262 	 
C 	 21.7721 	 7.35228 	 76.7912 	 
H 	 20.8631 	 6.92168 	 77.1024 	 
H 	 22.5107 	 7.04659 	 77.5723 	 
C 	 21.7465 	 8.84405 	 76.6827 	 
H 	 22.7746 	 9.30537 	 76.5526 	 
H 	 21.148 	 9.13661 	 75.8309 	 
H 	 21.2635 	 9.35928 	 77.4894 	 
S 	 23.4621 	 0.780609 	 74.0378 	 
C 	 22.4129 	 -0.183746 	 72.9663 	 
C 	 21.116 	 -0.02344 	 73.3464 	 
C 	 20.8447 	 1.07581 	 74.2677 	 
C 	 22.0244 	 1.65153 	 74.7572 	 
H 	 20.3565 	 -0.6499 	 72.9324 	 
C 	 19.4965 	 1.3489 	 74.7556 	 
H 	 19.6293 	 1.95999 	 75.6161 	 
H 	 18.8947 	 0.524937 	 75.0998 	 
C 	 18.6222 	 2.14757 	 73.8154 	 
H 	 18.5036 	 1.50096 	 72.9613 	 
H 	 18.9991 	 3.13528 	 73.4313 	 
C 	 17.2681 	 2.4178 	 74.4831 	 
H 	 17.3357 	 3.03164 	 75.373 	 
H 	 16.6533 	 1.55103 	 74.7218 	 
H 	 16.6196 	 2.98392 	 73.7352 	 
H 	 24.2483 	 5.30345 	 77.2014 	 
H 	 22.7882 	 -1.013 	 72.3934 	 
