34

S 	 16.119 	 -15.1706 	 80.6167 	 
C 	 17.2506 	 -14.709 	 79.388 	 
C 	 16.6219 	 -14.2339 	 78.2146 	 
C 	 15.2329 	 -14.236 	 78.3295 	 
C 	 14.8016 	 -14.7702 	 79.5921 	 
H 	 14.4986 	 -14.0158 	 77.5857 	 
C 	 17.2398 	 -13.7203 	 76.924 	 
H 	 18.2374 	 -13.3859 	 77.1125 	 
H 	 16.6459 	 -12.909 	 76.5911 	 
C 	 17.2986 	 -14.741 	 75.7652 	 
H 	 17.7627 	 -15.6213 	 76.191 	 
H 	 16.2477 	 -14.9245 	 75.6655 	 
C 	 18.0107 	 -14.4596 	 74.453 	 
H 	 18.2266 	 -15.3722 	 73.9485 	 
H 	 17.3868 	 -13.8574 	 73.7911 	 
H 	 19.0131 	 -14.1155 	 74.5312 	 
S 	 13.1994 	 -16.4486 	 80.9819 	 
C 	 11.5346 	 -16.0685 	 81.3335 	 
C 	 11.0609 	 -15.0677 	 80.5487 	 
C 	 12.1572 	 -14.3783 	 79.9017 	 
C 	 13.4211 	 -14.9743 	 80.1162 	 
H 	 9.98751 	 -14.82 	 80.6562 	 
C 	 11.9458 	 -13.171 	 79.0715 	 
H 	 11.6278 	 -13.5635 	 78.0222 	 
H 	 12.8422 	 -12.654 	 78.9315 	 
C 	 10.9045 	 -12.1826 	 79.56 	 
H 	 11.2861 	 -11.7837 	 80.537 	 
H 	 9.90456 	 -12.6543 	 79.6338 	 
C 	 10.7698 	 -11.0123 	 78.5553 	 
H 	 10.6816 	 -11.387 	 77.5829 	 
H 	 11.7235 	 -10.5165 	 78.4575 	 
H 	 9.9594 	 -10.3068 	 78.7848 	 
H 	 18.2775 	 -14.9043 	 79.5423 	 
H 	 10.8996 	 -16.5975 	 82.0249 	 
