34

S 	 -7.64904 	 42.9555 	 36.3884 	 
C 	 -7.56674 	 41.5878 	 35.2279 	 
C 	 -6.36326 	 41.7004 	 34.4894 	 
C 	 -5.69905 	 42.925 	 34.71 	 
C 	 -6.17548 	 43.614 	 35.75 	 
H 	 -4.93062 	 43.3404 	 34.0808 	 
C 	 -5.85754 	 40.7326 	 33.4373 	 
H 	 -4.92469 	 40.4604 	 33.8226 	 
H 	 -5.63483 	 41.2821 	 32.5158 	 
C 	 -6.73986 	 39.4436 	 33.3186 	 
H 	 -6.82436 	 38.9579 	 34.2199 	 
H 	 -7.74869 	 39.8402 	 32.8966 	 
C 	 -6.12538 	 38.4203 	 32.3514 	 
H 	 -6.70323 	 37.656 	 31.9632 	 
H 	 -5.6536 	 39.0791 	 31.6077 	 
H 	 -5.31003 	 37.8317 	 32.7999 	 
S 	 -7.05104 	 46.1337 	 35.803 	 
C 	 -5.94472 	 47.3374 	 36.1949 	 
C 	 -4.67064 	 46.9443 	 36.5036 	 
C 	 -4.55414 	 45.5734 	 36.4181 	 
C 	 -5.76894 	 44.9801 	 35.9705 	 
H 	 -3.97526 	 47.7738 	 36.6351 	 
C 	 -3.24875 	 44.8921 	 36.7059 	 
H 	 -3.54436 	 44 	 37.2933 	 
H 	 -2.69443 	 45.6079 	 37.3601 	 
C 	 -2.34399 	 44.4481 	 35.5125 	 
H 	 -2.28091 	 45.4164 	 34.966 	 
H 	 -2.88352 	 43.6339 	 34.9548 	 
C 	 -0.995536 	 43.895 	 36.0502 	 
H 	 -0.504313 	 44.6346 	 36.5856 	 
H 	 -0.295517 	 43.5922 	 35.2517 	 
H 	 -1.20457 	 43.0419 	 36.7843 	 
H 	 -8.18791 	 40.6871 	 35.429 	 
H 	 -6.22611 	 48.4157 	 36.1688 	 
