34

S 	 -100.011 	 53.0592 	 119.479 	 
C 	 -99.8084 	 53.4797 	 117.8 	 
C 	 -100.488 	 54.6567 	 117.438 	 
C 	 -101.373 	 55.0702 	 118.425 	 
C 	 -101.264 	 54.2999 	 119.563 	 
H 	 -102.079 	 55.8922 	 118.517 	 
C 	 -100.457 	 55.239 	 116.044 	 
H 	 -101.379 	 55.7906 	 115.952 	 
H 	 -100.45 	 54.4538 	 115.186 	 
C 	 -99.2075 	 56.0871 	 115.766 	 
H 	 -98.2927 	 55.612 	 115.972 	 
H 	 -99.2098 	 56.2312 	 114.656 	 
C 	 -99.1815 	 57.4577 	 116.465 	 
H 	 -100.17 	 57.7305 	 116.658 	 
H 	 -98.8418 	 57.2253 	 117.555 	 
H 	 -98.6204 	 58.3149 	 116.056 	 
S 	 -101.406 	 54.6432 	 122.284 	 
C 	 -102.918 	 55.0041 	 123.053 	 
C 	 -103.98 	 54.7864 	 122.153 	 
C 	 -103.525 	 54.5442 	 120.818 	 
C 	 -102.164 	 54.4262 	 120.703 	 
H 	 -104.969 	 54.8417 	 122.479 	 
C 	 -104.544 	 54.3632 	 119.72 	 
H 	 -104.041 	 54.5786 	 118.811 	 
H 	 -105.204 	 55.2308 	 119.949 	 
C 	 -105.34 	 53.0574 	 119.694 	 
H 	 -104.633 	 52.1948 	 119.691 	 
H 	 -105.85 	 53.0365 	 118.798 	 
C 	 -106.359 	 52.8694 	 120.838 	 
H 	 -106.942 	 51.9737 	 120.769 	 
H 	 -107.122 	 53.6749 	 120.95 	 
H 	 -105.797 	 52.7484 	 121.8 	 
H 	 -99.0998 	 52.9955 	 117.135 	 
H 	 -103.079 	 55.2674 	 124.104 	 
