34

S 	 -35.6347 	 54.5183 	 100.823 	 
C 	 -36.5526 	 53.1567 	 100.258 	 
C 	 -37.8591 	 53.0916 	 100.758 	 
C 	 -38.1339 	 54.2749 	 101.491 	 
C 	 -37.0635 	 55.2351 	 101.584 	 
H 	 -39.0698 	 54.5239 	 101.979 	 
C 	 -38.7875 	 51.9114 	 100.644 	 
H 	 -38.4646 	 51.3059 	 99.7767 	 
H 	 -39.7568 	 52.3658 	 100.314 	 
C 	 -38.9843 	 51.0562 	 101.916 	 
H 	 -37.9954 	 50.8129 	 102.236 	 
H 	 -39.4481 	 51.6503 	 102.706 	 
C 	 -39.8992 	 49.834 	 101.865 	 
H 	 -39.637 	 49.016 	 101.196 	 
H 	 -39.8397 	 49.3616 	 102.88 	 
H 	 -40.9122 	 50.1481 	 101.821 	 
S 	 -37.2421 	 56.1811 	 104.105 	 
C 	 -37.2572 	 57.86 	 104.414 	 
C 	 -36.8831 	 58.6083 	 103.292 	 
C 	 -36.8324 	 57.8301 	 102.118 	 
C 	 -37.023 	 56.4601 	 102.382 	 
H 	 -36.9021 	 59.7148 	 103.338 	 
C 	 -36.5455 	 58.4647 	 100.735 	 
H 	 -37.1786 	 59.3688 	 100.724 	 
H 	 -36.7368 	 57.7853 	 99.8887 	 
C 	 -35.075 	 58.91 	 100.491 	 
H 	 -34.3328 	 58.0871 	 100.634 	 
H 	 -34.7622 	 59.5991 	 101.198 	 
C 	 -35.0448 	 59.4812 	 99.0518 	 
H 	 -34.9782 	 58.6347 	 98.3205 	 
H 	 -33.9867 	 59.921 	 98.8531 	 
H 	 -35.7165 	 60.2991 	 98.7332 	 
H 	 -36.2136 	 52.2919 	 99.7065 	 
H 	 -37.3925 	 58.2835 	 105.361 	 
