34

S 	 -40.7674 	 36.2647 	 80.1551 	 
C 	 -40.4023 	 38.0061 	 80.3877 	 
C 	 -41.5333 	 38.704 	 80.6214 	 
C 	 -42.6598 	 37.8542 	 80.9288 	 
C 	 -42.4518 	 36.4993 	 80.6864 	 
H 	 -43.6886 	 38.1715 	 81.1696 	 
C 	 -41.5679 	 40.2308 	 80.7453 	 
H 	 -40.7577 	 40.6923 	 81.3277 	 
H 	 -42.494 	 40.3407 	 81.2975 	 
C 	 -41.9538 	 40.9908 	 79.4204 	 
H 	 -42.207 	 42.0089 	 79.6115 	 
H 	 -40.9742 	 40.9242 	 78.9506 	 
C 	 -43.0161 	 40.2938 	 78.5855 	 
H 	 -43.2643 	 40.7419 	 77.6059 	 
H 	 -42.7111 	 39.2741 	 78.4128 	 
H 	 -43.977 	 40.3769 	 79.071 	 
S 	 -43.9746 	 34.6323 	 79.4823 	 
C 	 -45.0854 	 33.6541 	 80.3374 	 
C 	 -45.0085 	 33.9066 	 81.6929 	 
C 	 -44.1254 	 35.0067 	 82.0146 	 
C 	 -43.3793 	 35.414 	 80.9566 	 
H 	 -45.5356 	 33.1763 	 82.3711 	 
C 	 -43.6463 	 35.4067 	 83.465 	 
H 	 -42.6255 	 35.7463 	 83.5369 	 
H 	 -43.6563 	 34.533 	 84.0684 	 
C 	 -44.5083 	 36.5979 	 83.9854 	 
H 	 -44.191 	 37.5756 	 83.6523 	 
H 	 -44.3581 	 36.5288 	 85.0569 	 
C 	 -46.0175 	 36.4276 	 83.7276 	 
H 	 -46.2646 	 36.6399 	 82.6592 	 
H 	 -46.7544 	 37.0761 	 84.2559 	 
H 	 -46.2742 	 35.4086 	 83.9441 	 
H 	 -39.4141 	 38.4512 	 80.1975 	 
H 	 -45.5511 	 32.7878 	 79.8837 	 
