34

S 	 -47.7829 	 61.9828 	 140.113 	 
C 	 -47.0008 	 60.4225 	 139.987 	 
C 	 -47.8305 	 59.3706 	 140.361 	 
C 	 -49.1206 	 59.9013 	 140.545 	 
C 	 -49.3308 	 61.2205 	 140.372 	 
H 	 -49.9208 	 59.2793 	 140.882 	 
C 	 -47.4142 	 57.9634 	 140.483 	 
H 	 -47.7799 	 57.6715 	 141.523 	 
H 	 -46.3204 	 57.8634 	 140.357 	 
C 	 -47.9665 	 57.0925 	 139.425 	 
H 	 -49.0044 	 57.1603 	 139.46 	 
H 	 -47.7008 	 57.5175 	 138.463 	 
C 	 -47.5299 	 55.6457 	 139.478 	 
H 	 -46.4894 	 55.6895 	 139.223 	 
H 	 -47.6498 	 55.14 	 140.47 	 
H 	 -48.0232 	 55.0315 	 138.753 	 
S 	 -50.6313 	 63.3686 	 141.36 	 
C 	 -52.3403 	 63.564 	 141.157 	 
C 	 -52.8281 	 62.6936 	 140.195 	 
C 	 -51.7879 	 61.7239 	 139.791 	 
C 	 -50.5701 	 61.9453 	 140.375 	 
H 	 -53.899 	 62.7732 	 139.91 	 
C 	 -52.0857 	 60.5079 	 138.991 	 
H 	 -51.1815 	 60.1919 	 138.502 	 
H 	 -52.6239 	 60.7592 	 138.142 	 
C 	 -52.8638 	 59.4376 	 139.812 	 
H 	 -53.8959 	 59.828 	 139.844 	 
H 	 -52.637 	 59.404 	 140.914 	 
C 	 -52.7497 	 58.0647 	 139.114 	 
H 	 -51.6749 	 57.7212 	 139.229 	 
H 	 -52.9078 	 58.2774 	 138.018 	 
H 	 -53.5216 	 57.3303 	 139.453 	 
H 	 -45.9002 	 60.3793 	 139.849 	 
H 	 -52.9439 	 64.3812 	 141.502 	 
