34

S 	 -34.7697 	 42.7634 	 96.3277 	 
C 	 -33.326 	 41.836 	 96.1537 	 
C 	 -33.239 	 40.7546 	 97.015 	 
C 	 -34.3846 	 40.6964 	 97.8457 	 
C 	 -35.3099 	 41.7138 	 97.5677 	 
H 	 -34.6753 	 40.0926 	 98.6679 	 
C 	 -32.1625 	 39.6876 	 96.9967 	 
H 	 -32.5118 	 39.1032 	 97.8417 	 
H 	 -31.1885 	 40.1168 	 97.141 	 
C 	 -32.1462 	 38.8402 	 95.6525 	 
H 	 -33.233 	 38.5533 	 95.5384 	 
H 	 -31.9054 	 39.4988 	 94.7839 	 
C 	 -31.221 	 37.624 	 95.7233 	 
H 	 -31.4744 	 36.9654 	 96.5817 	 
H 	 -31.3062 	 36.9586 	 94.8908 	 
H 	 -30.1186 	 37.8133 	 95.7714 	 
S 	 -36.7447 	 43.0784 	 99.4117 	 
C 	 -38.1672 	 42.3546 	 100.069 	 
C 	 -38.5098 	 41.216 	 99.394 	 
C 	 -37.6846 	 40.8872 	 98.2892 	 
C 	 -36.6331 	 41.82 	 98.1699 	 
H 	 -39.4094 	 40.7562 	 99.7441 	 
C 	 -37.7718 	 39.5875 	 97.4146 	 
H 	 -37.0296 	 39.7045 	 96.6003 	 
H 	 -38.7206 	 39.6283 	 96.8892 	 
C 	 -37.6637 	 38.3159 	 98.3117 	 
H 	 -38.4504 	 38.2751 	 99.0236 	 
H 	 -36.7704 	 38.3801 	 98.914 	 
C 	 -37.6609 	 37.0252 	 97.4111 	 
H 	 -36.984 	 37.0723 	 96.5912 	 
H 	 -38.6241 	 36.9674 	 96.9907 	 
H 	 -37.4056 	 36.1019 	 97.8739 	 
H 	 -32.6713 	 41.9193 	 95.2964 	 
H 	 -38.7073 	 42.6382 	 100.923 	 
