34

S 	 1.53945 	 0.204439 	 80.8724 	 
C 	 1.46707 	 0.239574 	 82.6563 	 
C 	 1.08582 	 -0.979326 	 83.1698 	 
C 	 0.804866 	 -1.97811 	 82.133 	 
C 	 0.875698 	 -1.51077 	 80.8727 	 
H 	 0.394418 	 -2.98738 	 82.4365 	 
C 	 0.853065 	 -1.28875 	 84.6583 	 
H 	 0.0363288 	 -1.94566 	 84.554 	 
H 	 0.405747 	 -0.501297 	 85.224 	 
C 	 2.11987 	 -1.78433 	 85.3935 	 
H 	 1.97667 	 -2.10118 	 86.4891 	 
H 	 2.55648 	 -2.6685 	 84.8825 	 
C 	 3.15646 	 -0.669914 	 85.4215 	 
H 	 4.02917 	 -1.15466 	 85.892 	 
H 	 3.45878 	 -0.310524 	 84.4581 	 
H 	 2.84782 	 0.192277 	 86.0173 	 
S 	 -0.429042 	 -1.67847 	 78.4739 	 
C 	 -0.096304 	 -3.01111 	 77.4138 	 
C 	 0.826688 	 -3.88195 	 77.9555 	 
C 	 1.26071 	 -3.43139 	 79.262 	 
C 	 0.651881 	 -2.24665 	 79.6239 	 
H 	 1.19192 	 -4.76609 	 77.4087 	 
C 	 2.42358 	 -4.12901 	 80.0001 	 
H 	 2.93703 	 -3.28113 	 80.5221 	 
H 	 3.0287 	 -4.51214 	 79.1622 	 
C 	 2.02767 	 -5.29323 	 80.8891 	 
H 	 1.39044 	 -4.94212 	 81.6609 	 
H 	 3.00091 	 -5.61428 	 81.3463 	 
C 	 1.43302 	 -6.49743 	 80.1308 	 
H 	 1.19813 	 -7.40941 	 80.7261 	 
H 	 1.99581 	 -6.7995 	 79.2293 	 
H 	 0.520609 	 -6.16094 	 79.6705 	 
H 	 1.7053 	 1.11796 	 83.2605 	 
H 	 -0.751502 	 -3.26478 	 76.5503 	 
