34

S 	 -35.6564 	 35.6069 	 44.3459 	 
C 	 -35.1451 	 34.3 	 45.4248 	 
C 	 -33.8077 	 33.9947 	 45.2901 	 
C 	 -33.3204 	 34.5637 	 44.0683 	 
C 	 -34.2036 	 35.3738 	 43.4566 	 
H 	 -32.3411 	 34.2569 	 43.6176 	 
C 	 -32.9887 	 32.9493 	 46.0939 	 
H 	 -32.7657 	 33.2013 	 47.1107 	 
H 	 -31.9854 	 33.013 	 45.6765 	 
C 	 -33.4652 	 31.4602 	 45.9315 	 
H 	 -34.121 	 31.4216 	 45.0646 	 
H 	 -32.6622 	 30.7615 	 45.8361 	 
C 	 -34.306 	 30.9299 	 47.1122 	 
H 	 -34.9536 	 30.0902 	 46.8117 	 
H 	 -33.6818 	 30.3859 	 47.8533 	 
H 	 -34.9975 	 31.6507 	 47.5526 	 
S 	 -34.1088 	 37.7199 	 42.0237 	 
C 	 -33.8668 	 37.7025 	 40.29 	 
C 	 -33.9991 	 36.4096 	 39.9065 	 
C 	 -34.0539 	 35.4202 	 40.9097 	 
C 	 -34.0263 	 36.0199 	 42.1432 	 
H 	 -34.0635 	 36.2478 	 38.8765 	 
C 	 -34.0829 	 33.9212 	 40.6555 	 
H 	 -35.1233 	 33.5419 	 40.808 	 
H 	 -33.4799 	 33.4922 	 41.4857 	 
C 	 -33.3763 	 33.3483 	 39.4116 	 
H 	 -33.9428 	 33.6708 	 38.5103 	 
H 	 -33.4216 	 32.2542 	 39.4212 	 
C 	 -31.9163 	 33.8029 	 39.259 	 
H 	 -31.8906 	 34.8247 	 38.9433 	 
H 	 -31.5126 	 33.1705 	 38.4143 	 
H 	 -31.2239 	 33.843 	 40.0864 	 
H 	 -35.6598 	 33.9526 	 46.275 	 
H 	 -33.6068 	 38.4646 	 39.6035 	 
