34

S 	 26.9094 	 -0.419579 	 72.1864 	 
C 	 26.809 	 1.22725 	 72.7199 	 
C 	 27.8672 	 1.41559 	 73.6341 	 
C 	 28.8624 	 0.343052 	 73.6416 	 
C 	 28.5144 	 -0.693362 	 72.7808 	 
H 	 29.7212 	 0.218888 	 74.1982 	 
C 	 28.0161 	 2.73904 	 74.5249 	 
H 	 28.612 	 3.5069 	 74.0769 	 
H 	 28.4802 	 2.29107 	 75.3839 	 
C 	 26.717 	 3.29944 	 75.0254 	 
H 	 26.1579 	 3.83548 	 74.1597 	 
H 	 26.075 	 2.47727 	 75.2271 	 
C 	 26.8393 	 4.13071 	 76.353 	 
H 	 27.1145 	 3.48651 	 77.1965 	 
H 	 27.4349 	 5.01857 	 76.1027 	 
H 	 25.8991 	 4.59547 	 76.6037 	 
S 	 28.6025 	 -3.43976 	 73.1061 	 
C 	 30.0804 	 -4.29193 	 72.7568 	 
C 	 30.9662 	 -3.48451 	 72.1435 	 
C 	 30.5799 	 -2.11004 	 72.0338 	 
C 	 29.2817 	 -1.93698 	 72.5491 	 
H 	 31.8603 	 -3.8263 	 71.7445 	 
C 	 31.4889 	 -1.12234 	 71.4746 	 
H 	 31.721 	 -0.364948 	 72.248 	 
H 	 30.855 	 -0.510565 	 70.7921 	 
C 	 32.8051 	 -1.61385 	 70.8244 	 
H 	 32.5236 	 -2.31557 	 69.9992 	 
H 	 33.3902 	 -2.2077 	 71.5573 	 
C 	 33.421 	 -0.394916 	 70.2545 	 
H 	 34.3141 	 -0.573888 	 69.6461 	 
H 	 33.7513 	 0.285878 	 71.047 	 
H 	 32.7444 	 0.133202 	 69.5827 	 
H 	 26.0944 	 2.0319 	 72.5105 	 
H 	 30.1792 	 -5.39567 	 72.9386 	 
