34

S 	 -92.9606 	 62.1539 	 122.746 	 
C 	 -93.2109 	 61.0603 	 121.408 	 
C 	 -92.5414 	 59.8831 	 121.665 	 
C 	 -91.763 	 59.9321 	 122.835 	 
C 	 -91.9962 	 61.0624 	 123.622 	 
H 	 -91.1929 	 59.117 	 123.251 	 
C 	 -92.4591 	 58.7229 	 120.661 	 
H 	 -91.4646 	 58.8846 	 120.167 	 
H 	 -93.167 	 58.8835 	 119.807 	 
C 	 -92.7797 	 57.3397 	 121.24 	 
H 	 -92.4127 	 57.2627 	 122.206 	 
H 	 -93.81 	 57.1033 	 121.186 	 
C 	 -92.094 	 56.1551 	 120.512 	 
H 	 -90.999 	 56.4726 	 120.472 	 
H 	 -92.2453 	 55.1739 	 121.049 	 
H 	 -92.5961 	 56.0289 	 119.577 	 
S 	 -92.5083 	 62.3676 	 126.012 	 
C 	 -91.0999 	 62.6624 	 127.122 	 
C 	 -89.9449 	 62.0208 	 126.701 	 
C 	 -90.1692 	 61.3236 	 125.463 	 
C 	 -91.4384 	 61.4172 	 124.961 	 
H 	 -88.9843 	 62.0942 	 127.252 	 
C 	 -89.0058 	 60.6749 	 124.683 	 
H 	 -89.2913 	 59.9547 	 123.963 	 
H 	 -88.6542 	 59.9749 	 125.423 	 
C 	 -87.9158 	 61.6214 	 124.206 	 
H 	 -87.7166 	 62.4187 	 124.942 	 
H 	 -88.0798 	 62.0797 	 123.283 	 
C 	 -86.5251 	 60.9159 	 123.974 	 
H 	 -86.3315 	 60.2315 	 124.785 	 
H 	 -85.7477 	 61.7578 	 124.048 	 
H 	 -86.4899 	 60.3094 	 123.063 	 
H 	 -93.77 	 61.3325 	 120.539 	 
H 	 -91.0245 	 63.2899 	 127.955 	 
