34

S 	 32.0386 	 15.8146 	 48.9344 	 
C 	 32.2861 	 17.2057 	 49.9312 	 
C 	 33.1303 	 16.8425 	 50.9642 	 
C 	 33.7236 	 15.5495 	 50.8236 	 
C 	 33.3378 	 14.92 	 49.725 	 
H 	 34.3543 	 14.9589 	 51.3919 	 
C 	 33.3574 	 17.7781 	 52.1982 	 
H 	 32.4949 	 17.6898 	 52.807 	 
H 	 33.3376 	 18.8402 	 51.9698 	 
C 	 34.6116 	 17.5387 	 53.0705 	 
H 	 34.6828 	 16.4921 	 53.1458 	 
H 	 35.4881 	 17.7333 	 52.4388 	 
C 	 34.7536 	 18.2767 	 54.3747 	 
H 	 35.0968 	 19.3209 	 54.1585 	 
H 	 33.8526 	 18.2351 	 54.9719 	 
H 	 35.5665 	 17.779 	 55.0389 	 
S 	 32.4565 	 12.4797 	 48.6295 	 
C 	 33.443 	 11.0987 	 48.577 	 
C 	 34.6717 	 11.4572 	 48.9808 	 
C 	 34.832 	 12.8019 	 49.4739 	 
C 	 33.6735 	 13.5393 	 49.4183 	 
H 	 35.5576 	 10.7558 	 48.9512 	 
C 	 36.1443 	 13.2206 	 49.9104 	 
H 	 36.2445 	 13.1498 	 50.9299 	 
H 	 36.0346 	 14.3139 	 49.9475 	 
C 	 37.3778 	 12.8746 	 49.1069 	 
H 	 37.568 	 11.8817 	 49.3217 	 
H 	 38.2218 	 13.5109 	 49.4923 	 
C 	 37.1856 	 13.1013 	 47.6153 	 
H 	 36.9869 	 14.2074 	 47.5449 	 
H 	 36.1986 	 12.8438 	 47.2221 	 
H 	 38.0998 	 12.8869 	 46.9949 	 
H 	 31.635 	 18.1118 	 49.8912 	 
H 	 33.2114 	 10.0898 	 48.2357 	 
