34

S 	 -95.5382 	 54.1903 	 123.576 	 
C 	 -94.2705 	 53.9243 	 124.734 	 
C 	 -94.7451 	 53.6637 	 125.991 	 
C 	 -96.1709 	 53.556 	 126.01 	 
C 	 -96.7764 	 53.7444 	 124.74 	 
H 	 -96.658 	 53.1714 	 126.871 	 
C 	 -93.8684 	 53.3073 	 127.168 	 
H 	 -94.4874 	 53.0624 	 128.051 	 
H 	 -93.3735 	 54.2378 	 127.309 	 
C 	 -92.8492 	 52.1795 	 126.987 	 
H 	 -92.2533 	 52.4397 	 126.102 	 
H 	 -92.0704 	 52.2249 	 127.823 	 
C 	 -93.4337 	 50.7105 	 126.884 	 
H 	 -93.3799 	 50.1443 	 127.779 	 
H 	 -94.4613 	 50.642 	 126.456 	 
H 	 -92.9011 	 50.0897 	 126.163 	 
S 	 -99.2586 	 54.8776 	 125.089 	 
C 	 -100.588 	 54.3858 	 124.08 	 
C 	 -100.126 	 53.4922 	 123.138 	 
C 	 -98.8469 	 52.9811 	 123.381 	 
C 	 -98.2151 	 53.6614 	 124.382 	 
H 	 -100.836 	 53.1489 	 122.452 	 
C 	 -98.2271 	 51.9925 	 122.491 	 
H 	 -97.2506 	 52.2629 	 122.173 	 
H 	 -98.6894 	 51.976 	 121.479 	 
C 	 -98.205 	 50.5767 	 123.003 	 
H 	 -99.2076 	 50.3402 	 123.4 	 
H 	 -97.6479 	 50.4602 	 123.941 	 
C 	 -97.5832 	 49.4756 	 122.059 	 
H 	 -97.409 	 48.6493 	 122.652 	 
H 	 -96.6403 	 49.8245 	 121.585 	 
H 	 -98.1878 	 49.2 	 121.172 	 
H 	 -93.2328 	 54.0563 	 124.535 	 
H 	 -101.591 	 54.7703 	 124.261 	 
