34

S 	 4.63582 	 -10.4544 	 75.2678 	 
C 	 3.07882 	 -9.77614 	 75.0673 	 
C 	 2.56715 	 -10.0832 	 73.7754 	 
C 	 3.47676 	 -10.7389 	 72.8851 	 
C 	 4.65228 	 -11.0131 	 73.5584 	 
H 	 3.24541 	 -11.1135 	 71.9155 	 
C 	 1.1566 	 -9.6275 	 73.3585 	 
H 	 0.391342 	 -10.2226 	 73.8203 	 
H 	 1.03094 	 -9.98572 	 72.3209 	 
C 	 0.726057 	 -8.16292 	 73.283 	 
H 	 0.791639 	 -7.71872 	 74.2981 	 
H 	 1.34152 	 -7.45975 	 72.6474 	 
C 	 -0.74703 	 -7.99284 	 72.8289 	 
H 	 -1.18267 	 -6.99833 	 72.8723 	 
H 	 -0.797087 	 -8.46778 	 71.9008 	 
H 	 -1.31274 	 -8.66449 	 73.4227 	 
S 	 7.19081 	 -10.649 	 72.4439 	 
C 	 7.86416 	 -12.0759 	 71.6752 	 
C 	 7.06481 	 -13.2068 	 71.766 	 
C 	 5.85574 	 -12.9556 	 72.5011 	 
C 	 5.77414 	 -11.6323 	 72.8972 	 
H 	 7.2654 	 -14.1559 	 71.2773 	 
C 	 4.78178 	 -13.9402 	 72.6468 	 
H 	 4.78892 	 -14.6065 	 71.8305 	 
H 	 3.84242 	 -13.4604 	 72.5551 	 
C 	 4.68599 	 -14.6019 	 74.0234 	 
H 	 4.66384 	 -13.8653 	 74.8344 	 
H 	 5.61633 	 -15.1617 	 74.0999 	 
C 	 3.54676 	 -15.5812 	 74.3081 	 
H 	 2.57863 	 -15.029 	 74.2202 	 
H 	 3.74743 	 -15.9298 	 75.2757 	 
H 	 3.50171 	 -16.5137 	 73.6102 	 
H 	 2.45156 	 -9.34997 	 75.8306 	 
H 	 8.83993 	 -12.0961 	 71.1823 	 
