34

S 	 -21.1727 	 33.9879 	 42.728 	 
C 	 -19.8223 	 34.3768 	 43.6981 	 
C 	 -18.7438 	 34.3886 	 42.8232 	 
C 	 -19.0257 	 34.0598 	 41.4727 	 
C 	 -20.3385 	 33.9579 	 41.2301 	 
H 	 -18.229 	 33.9768 	 40.693 	 
C 	 -17.2349 	 34.6038 	 43.2388 	 
H 	 -17.2406 	 34.7814 	 44.2765 	 
H 	 -16.7322 	 35.4688 	 42.7682 	 
C 	 -16.3235 	 33.4032 	 42.9029 	 
H 	 -16.7477 	 32.5853 	 43.4369 	 
H 	 -16.2665 	 33.0977 	 41.8523 	 
C 	 -14.8991 	 33.5023 	 43.296 	 
H 	 -14.8086 	 33.9645 	 44.2653 	 
H 	 -14.5284 	 32.5057 	 43.4223 	 
H 	 -14.3062 	 34.0055 	 42.5853 	 
S 	 -22.9304 	 34.2533 	 39.9904 	 
C 	 -23.1645 	 33.7555 	 38.2714 	 
C 	 -21.9502 	 33.2575 	 37.8314 	 
C 	 -20.8085 	 33.2581 	 38.7316 	 
C 	 -21.1771 	 33.6722 	 40.0049 	 
H 	 -21.9409 	 33.0745 	 36.8034 	 
C 	 -19.4237 	 32.8324 	 38.3432 	 
H 	 -19.5003 	 31.8922 	 37.8376 	 
H 	 -18.9077 	 32.6845 	 39.2605 	 
C 	 -18.6375 	 33.9307 	 37.5567 	 
H 	 -18.8455 	 34.8697 	 38.0747 	 
H 	 -19.0385 	 34.1175 	 36.5629 	 
C 	 -17.1285 	 33.7423 	 37.4583 	 
H 	 -16.6088 	 34.599 	 37.0454 	 
H 	 -16.9874 	 32.9475 	 36.6595 	 
H 	 -16.6296 	 33.3776 	 38.367 	 
H 	 -19.7984 	 34.5495 	 44.7865 	 
H 	 -24.0706 	 33.808 	 37.6319 	 
