34

S 	 52.309 	 9.07244 	 80.1366 	 
C 	 51.0982 	 10.2651 	 79.6055 	 
C 	 49.8846 	 10.189 	 80.2628 	 
C 	 50.0748 	 9.49333 	 81.4406 	 
C 	 51.3459 	 8.91995 	 81.6151 	 
H 	 49.3479 	 9.21739 	 82.191 	 
C 	 48.5921 	 11.0338 	 79.9467 	 
H 	 49.0577 	 12.0327 	 80.0375 	 
H 	 47.8897 	 10.8065 	 80.8343 	 
C 	 47.9463 	 10.7617 	 78.6471 	 
H 	 48.729 	 10.9968 	 77.9898 	 
H 	 47.6763 	 9.70085 	 78.5829 	 
C 	 46.9163 	 11.8188 	 78.3464 	 
H 	 46.3461 	 11.6739 	 77.4252 	 
H 	 46.2185 	 11.9501 	 79.1528 	 
H 	 47.3118 	 12.8582 	 78.3579 	 
S 	 52.5032 	 6.51582 	 82.2062 	 
C 	 52.2043 	 5.87294 	 83.7528 	 
C 	 51.7379 	 6.78511 	 84.6591 	 
C 	 51.58 	 8.04062 	 84.0504 	 
C 	 51.7142 	 8.00089 	 82.6592 	 
H 	 51.6819 	 6.51772 	 85.7614 	 
C 	 50.9116 	 9.15759 	 84.7494 	 
H 	 49.8811 	 8.79567 	 84.8872 	 
H 	 50.8601 	 10.0218 	 84.1039 	 
C 	 51.5568 	 9.60186 	 85.9976 	 
H 	 51.8117 	 8.77683 	 86.6365 	 
H 	 50.8698 	 10.1653 	 86.548 	 
C 	 52.8545 	 10.35 	 85.9111 	 
H 	 52.7218 	 11.2158 	 85.2773 	 
H 	 53.5893 	 9.79514 	 85.3821 	 
H 	 53.2879 	 10.7832 	 86.8183 	 
H 	 51.0556 	 10.715 	 78.6158 	 
H 	 52.3447 	 4.86251 	 84.0753 	 
