34

S 	 -40.7988 	 53.8135 	 108.205 	 
C 	 -39.4046 	 54.7629 	 108.604 	 
C 	 -39.5307 	 55.4093 	 109.827 	 
C 	 -40.8326 	 55.2221 	 110.418 	 
C 	 -41.5503 	 54.3493 	 109.735 	 
H 	 -41.1766 	 55.5851 	 111.331 	 
C 	 -38.4714 	 56.2428 	 110.472 	 
H 	 -37.6749 	 56.0496 	 109.844 	 
H 	 -38.2387 	 55.8693 	 111.455 	 
C 	 -38.7415 	 57.7899 	 110.762 	 
H 	 -39.6526 	 57.7758 	 111.477 	 
H 	 -37.8916 	 58.1755 	 111.305 	 
C 	 -38.9976 	 58.5863 	 109.454 	 
H 	 -38.2018 	 58.2163 	 108.772 	 
H 	 -40.0229 	 58.3915 	 109.168 	 
H 	 -38.9619 	 59.6882 	 109.589 	 
S 	 -42.5905 	 52.1829 	 110.885 	 
C 	 -44.2782 	 52.0495 	 111.174 	 
C 	 -44.9714 	 53.164 	 110.736 	 
C 	 -44.1011 	 54.1436 	 110.124 	 
C 	 -42.7453 	 53.7477 	 110.177 	 
H 	 -46.0311 	 53.2817 	 110.893 	 
C 	 -44.7346 	 55.4075 	 109.533 	 
H 	 -44.2179 	 56.177 	 110.084 	 
H 	 -45.7684 	 55.4458 	 109.583 	 
C 	 -44.421 	 55.768 	 108.096 	 
H 	 -43.387 	 55.5763 	 107.848 	 
H 	 -44.5305 	 56.817 	 107.878 	 
C 	 -45.3783 	 55.0778 	 107.16 	 
H 	 -45.3399 	 54.0246 	 107.366 	 
H 	 -45.2321 	 55.2652 	 106.142 	 
H 	 -46.3349 	 55.5065 	 107.457 	 
H 	 -38.5148 	 54.7133 	 107.977 	 
H 	 -44.7697 	 51.2711 	 111.62 	 
