34

S 	 3.94124 	 78.821 	 48.6364 	 
C 	 3.61503 	 79.7789 	 50.0382 	 
C 	 3.33084 	 79.0136 	 51.1487 	 
C 	 3.187 	 77.6321 	 50.7914 	 
C 	 3.28193 	 77.4381 	 49.452 	 
H 	 2.80956 	 76.8533 	 51.3936 	 
C 	 3.02956 	 79.5056 	 52.4918 	 
H 	 3.62158 	 80.4092 	 52.4832 	 
H 	 3.50763 	 78.827 	 53.1941 	 
C 	 1.57158 	 79.8031 	 52.708 	 
H 	 1.32892 	 79.7754 	 53.7768 	 
H 	 1.24963 	 80.834 	 52.4125 	 
C 	 0.577793 	 78.8669 	 52.0532 	 
H 	 -0.483244 	 79.0441 	 52.5187 	 
H 	 0.388748 	 78.8448 	 50.9068 	 
H 	 0.773589 	 77.8569 	 52.4054 	 
S 	 3.71625 	 76.0982 	 47.0803 	 
C 	 3.28077 	 74.3449 	 46.8893 	 
C 	 2.55034 	 73.9048 	 48.0094 	 
C 	 2.466 	 74.9212 	 49.0431 	 
C 	 3.10264 	 76.1495 	 48.7453 	 
H 	 2.34363 	 72.8711 	 48.0332 	 
C 	 1.62364 	 74.6078 	 50.3024 	 
H 	 0.72005 	 74.0822 	 49.9843 	 
H 	 1.345 	 75.4934 	 50.9121 	 
C 	 2.32609 	 73.6862 	 51.2168 	 
H 	 2.69937 	 72.8198 	 50.6329 	 
H 	 1.56709 	 73.1332 	 51.78 	 
C 	 3.3923 	 74.1619 	 52.1525 	 
H 	 3.52988 	 73.4401 	 52.949 	 
H 	 2.97688 	 75.1338 	 52.5165 	 
H 	 4.38358 	 74.3001 	 51.6855 	 
H 	 3.78677 	 80.7938 	 50.0849 	 
H 	 3.48268 	 73.712 	 46.0258 	 
