34

S 	 -65.73 	 46.7667 	 124.808 	 
C 	 -66.6054 	 45.5874 	 125.707 	 
C 	 -67.5718 	 46.1453 	 126.56 	 
C 	 -67.669 	 47.5426 	 126.328 	 
C 	 -66.759 	 48.0024 	 125.457 	 
H 	 -68.3474 	 48.2532 	 126.795 	 
C 	 -68.4168 	 45.4036 	 127.588 	 
H 	 -67.9397 	 45.5957 	 128.601 	 
H 	 -68.1651 	 44.3667 	 127.45 	 
C 	 -69.9583 	 45.691 	 127.613 	 
H 	 -70.1027 	 46.6898 	 127.38 	 
H 	 -70.5666 	 45.1244 	 126.858 	 
C 	 -70.5442 	 45.5479 	 129.013 	 
H 	 -70.3509 	 44.5401 	 129.43 	 
H 	 -69.9946 	 46.146 	 129.764 	 
H 	 -71.6399 	 45.7238 	 128.982 	 
S 	 -66.6204 	 49.8185 	 123.496 	 
C 	 -66.8043 	 51.5575 	 123.764 	 
C 	 -66.9015 	 51.7498 	 125.094 	 
C 	 -66.7384 	 50.6234 	 125.914 	 
C 	 -66.6373 	 49.4272 	 125.132 	 
H 	 -67.0294 	 52.8184 	 125.37 	 
C 	 -66.7556 	 50.6655 	 127.451 	 
H 	 -67.4797 	 49.9138 	 127.858 	 
H 	 -66.9893 	 51.7123 	 127.774 	 
C 	 -65.3367 	 50.3243 	 127.98 	 
H 	 -64.4867 	 50.9679 	 127.702 	 
H 	 -65.0728 	 49.3589 	 127.616 	 
C 	 -65.3022 	 49.9582 	 129.462 	 
H 	 -64.3078 	 49.5907 	 129.718 	 
H 	 -66.0163 	 49.3114 	 129.932 	 
H 	 -65.438 	 50.9029 	 129.867 	 
H 	 -66.556 	 44.5213 	 125.48 	 
H 	 -66.9196 	 52.2965 	 123.008 	 
