34

S 	 -1.67757 	 -29.2161 	 84.0348 	 
C 	 -1.01123 	 -30.445 	 82.935 	 
C 	 0.225439 	 -30.1086 	 82.4128 	 
C 	 0.603088 	 -28.794 	 82.8096 	 
C 	 -0.426963 	 -28.1365 	 83.5354 	 
H 	 1.61435 	 -28.4189 	 82.6473 	 
C 	 1.11304 	 -30.9782 	 81.6263 	 
H 	 1.04008 	 -31.9689 	 81.9579 	 
H 	 2.11501 	 -30.5964 	 81.8044 	 
C 	 0.819281 	 -30.8055 	 80.1217 	 
H 	 -0.230061 	 -31.0715 	 79.8821 	 
H 	 0.893926 	 -29.6848 	 79.8968 	 
C 	 1.7854 	 -31.6461 	 79.269 	 
H 	 1.43563 	 -32.6596 	 79.3991 	 
H 	 1.8388 	 -31.5046 	 78.1353 	 
H 	 2.81453 	 -31.6174 	 79.6808 	 
S 	 0.227044 	 -26.7761 	 85.7974 	 
C 	 0.174392 	 -24.9973 	 85.7897 	 
C 	 -0.0100361 	 -24.481 	 84.5085 	 
C 	 -0.313463 	 -25.5529 	 83.5727 	 
C 	 -0.294958 	 -26.8266 	 84.1544 	 
H 	 -0.0370249 	 -23.3806 	 84.3552 	 
C 	 -0.687532 	 -25.2886 	 82.1102 	 
H 	 -1.11345 	 -24.3104 	 81.9091 	 
H 	 -1.44544 	 -26.029 	 81.9884 	 
C 	 0.475707 	 -25.5338 	 81.0806 	 
H 	 0.14863 	 -25.3813 	 80.0391 	 
H 	 0.753512 	 -26.5903 	 81.1844 	 
C 	 1.7514 	 -24.6896 	 81.3282 	 
H 	 1.98928 	 -24.66 	 82.3855 	 
H 	 1.59742 	 -23.6816 	 81.002 	 
H 	 2.54788 	 -25.0691 	 80.8034 	 
H 	 -1.34718 	 -31.4275 	 82.6222 	 
H 	 0.311969 	 -24.4381 	 86.7084 	 
