34

S 	 -63.713 	 52.8518 	 124.752 	 
C 	 -63.9356 	 51.0879 	 124.968 	 
C 	 -62.7305 	 50.3883 	 124.983 	 
C 	 -61.5719 	 51.3209 	 124.843 	 
C 	 -61.9595 	 52.6549 	 124.993 	 
H 	 -60.4918 	 51.1331 	 124.642 	 
C 	 -62.6449 	 48.9445 	 125.05 	 
H 	 -61.5789 	 48.792 	 124.841 	 
H 	 -63.0605 	 48.4806 	 124.152 	 
C 	 -63.0815 	 48.3435 	 126.348 	 
H 	 -62.8135 	 49.1039 	 127.144 	 
H 	 -64.1956 	 48.3815 	 126.306 	 
C 	 -62.6168 	 46.9886 	 126.663 	 
H 	 -62.9174 	 46.2617 	 125.882 	 
H 	 -61.5262 	 47.0141 	 126.667 	 
H 	 -62.929 	 46.6233 	 127.626 	 
S 	 -60.4111 	 53.9615 	 123.135 	 
C 	 -59.3821 	 55.2586 	 123.591 	 
C 	 -59.2076 	 55.2533 	 124.938 	 
C 	 -60.1365 	 54.4205 	 125.662 	 
C 	 -60.9997 	 53.7121 	 124.827 	 
H 	 -58.3753 	 55.8432 	 125.43 	 
C 	 -60.027 	 54.0993 	 127.159 	 
H 	 -60.9393 	 53.63 	 127.501 	 
H 	 -60.0533 	 55.0142 	 127.723 	 
C 	 -58.7815 	 53.2957 	 127.569 	 
H 	 -58.704 	 53.2506 	 128.637 	 
H 	 -57.9252 	 53.8298 	 127.131 	 
C 	 -58.671 	 51.8281 	 127.1 	 
H 	 -57.7764 	 51.3721 	 127.576 	 
H 	 -58.6036 	 51.7771 	 125.961 	 
H 	 -59.4781 	 51.2515 	 127.409 	 
H 	 -64.8776 	 50.4964 	 124.835 	 
H 	 -59.0098 	 55.9137 	 122.794 	 
