34

S 	 -0.377219 	 5.77794 	 83.2255 	 
C 	 0.705258 	 4.85641 	 82.3436 	 
C 	 0.0428353 	 3.83304 	 81.6694 	 
C 	 -1.35615 	 3.70597 	 82.1108 	 
C 	 -1.68229 	 4.67275 	 82.9876 	 
H 	 -2.08495 	 2.9004 	 81.7794 	 
C 	 0.739527 	 2.85433 	 80.7209 	 
H 	 0.738943 	 1.87861 	 81.2697 	 
H 	 1.7545 	 3.17958 	 80.465 	 
C 	 -0.147933 	 2.62918 	 79.4838 	 
H 	 -1.01503 	 2.05825 	 79.7604 	 
H 	 -0.265684 	 3.52719 	 78.8844 	 
C 	 0.478072 	 1.64053 	 78.5423 	 
H 	 0.826501 	 0.736989 	 79.0804 	 
H 	 -0.343118 	 1.2788 	 77.8685 	 
H 	 1.19027 	 2.02033 	 77.8761 	 
S 	 -3.14426 	 4.81885 	 85.2395 	 
C 	 -4.86531 	 5.06 	 85.2085 	 
C 	 -5.30224 	 5.29314 	 83.9765 	 
C 	 -4.23909 	 5.30446 	 83.019 	 
C 	 -2.98122 	 4.95563 	 83.5952 	 
H 	 -6.32866 	 5.55424 	 83.6932 	 
C 	 -4.39019 	 5.68393 	 81.5133 	 
H 	 -3.63624 	 5.3141 	 80.7953 	 
H 	 -4.38535 	 6.73893 	 81.5048 	 
C 	 -5.72204 	 5.11157 	 80.9647 	 
H 	 -6.59534 	 5.52341 	 81.5548 	 
H 	 -5.66388 	 4.02991 	 81.0128 	 
C 	 -5.88891 	 5.52966 	 79.4627 	 
H 	 -6.74538 	 5.13581 	 79.0609 	 
H 	 -5.16937 	 5.13015 	 78.7723 	 
H 	 -5.93256 	 6.60497 	 79.4643 	 
H 	 1.7709 	 5.05182 	 82.1324 	 
H 	 -5.50309 	 5.07643 	 86.0842 	 
