34

S 	 5.09196 	 -17.5961 	 79.8611 	 
C 	 4.11094 	 -18.3741 	 81.0513 	 
C 	 2.76184 	 -18.3071 	 80.8167 	 
C 	 2.53927 	 -17.6127 	 79.5553 	 
C 	 3.73023 	 -17.221 	 78.9456 	 
H 	 1.58865 	 -17.4981 	 79.0202 	 
C 	 1.63612 	 -19.0033 	 81.5801 	 
H 	 1.81754 	 -20.0844 	 81.4942 	 
H 	 0.712143 	 -18.8465 	 81.0331 	 
C 	 1.62543 	 -18.6222 	 83.1032 	 
H 	 2.58858 	 -18.7657 	 83.5428 	 
H 	 1.39736 	 -17.5662 	 83.2239 	 
C 	 0.597154 	 -19.357 	 84.0356 	 
H 	 -0.444498 	 -19.2703 	 83.7354 	 
H 	 0.745387 	 -20.4261 	 83.9779 	 
H 	 0.529575 	 -18.9526 	 84.976 	 
S 	 4.07685 	 -17.5866 	 76.1652 	 
C 	 3.50832 	 -16.363 	 75.1612 	 
C 	 3.19215 	 -15.1923 	 75.8062 	 
C 	 3.24139 	 -15.3299 	 77.2036 	 
C 	 3.73744 	 -16.5718 	 77.605 	 
H 	 3.0414 	 -14.2994 	 75.2983 	 
C 	 2.73117 	 -14.2706 	 78.1366 	 
H 	 2.27441 	 -14.7279 	 79.0136 	 
H 	 1.93251 	 -13.7071 	 77.6516 	 
C 	 3.77091 	 -13.222 	 78.5418 	 
H 	 4.22144 	 -12.6605 	 77.6494 	 
H 	 4.54951 	 -13.7541 	 79.0578 	 
C 	 3.22691 	 -12.0913 	 79.336 	 
H 	 2.70583 	 -12.402 	 80.2533 	 
H 	 2.5034 	 -11.4806 	 78.7528 	 
H 	 3.97021 	 -11.3235 	 79.5544 	 
H 	 4.55444 	 -18.8837 	 81.9083 	 
H 	 3.79261 	 -16.4184 	 74.0881 	 
