34

S 	 -83.5717 	 51.6384 	 136.488 	 
C 	 -84.2472 	 52.2317 	 138.061 	 
C 	 -83.2966 	 52.8983 	 138.794 	 
C 	 -82.0722 	 53.1674 	 138.013 	 
C 	 -82.1175 	 52.6326 	 136.727 	 
H 	 -81.1422 	 53.6249 	 138.283 	 
C 	 -83.426 	 53.4953 	 140.15 	 
H 	 -83.7119 	 54.5348 	 140.107 	 
H 	 -82.4174 	 53.496 	 140.598 	 
C 	 -84.3702 	 52.8365 	 141.061 	 
H 	 -85.3107 	 52.519 	 140.609 	 
H 	 -83.8666 	 51.9212 	 141.426 	 
C 	 -84.7057 	 53.8481 	 142.24 	 
H 	 -83.8412 	 54.3473 	 142.76 	 
H 	 -85.4728 	 54.5616 	 141.843 	 
H 	 -85.2404 	 53.3413 	 143.034 	 
S 	 -81.4757 	 53.881 	 134.294 	 
C 	 -79.9907 	 53.5185 	 133.532 	 
C 	 -79.2011 	 52.6951 	 134.347 	 
C 	 -79.8771 	 52.281 	 135.533 	 
C 	 -81.1622 	 52.8002 	 135.642 	 
H 	 -78.1903 	 52.3704 	 134.043 	 
C 	 -79.203 	 51.3481 	 136.434 	 
H 	 -78.8325 	 50.5097 	 135.784 	 
H 	 -79.9233 	 51.0673 	 137.225 	 
C 	 -77.9645 	 51.9175 	 137.265 	 
H 	 -77.2237 	 52.4222 	 136.727 	 
H 	 -77.4541 	 51.1418 	 137.894 	 
C 	 -78.3823 	 53.0722 	 138.193 	 
H 	 -77.535 	 53.5983 	 138.73 	 
H 	 -78.9976 	 52.7041 	 138.98 	 
H 	 -78.974 	 53.7193 	 137.58 	 
H 	 -85.2489 	 52.0533 	 138.303 	 
H 	 -79.5832 	 54.0779 	 132.695 	 
