34

S 	 -31.8164 	 32.8389 	 42.1002 	 
C 	 -30.6647 	 31.7812 	 42.9837 	 
C 	 -31.0095 	 31.8278 	 44.3106 	 
C 	 -31.9465 	 32.8999 	 44.652 	 
C 	 -32.474 	 33.5722 	 43.5548 	 
H 	 -32.3512 	 33.1102 	 45.6406 	 
C 	 -30.4938 	 30.9335 	 45.3853 	 
H 	 -29.9834 	 30.2049 	 44.7886 	 
H 	 -31.3489 	 30.3896 	 45.875 	 
C 	 -29.7165 	 31.592 	 46.4718 	 
H 	 -28.8987 	 32.1864 	 46.0482 	 
H 	 -30.3058 	 32.4194 	 46.9439 	 
C 	 -29.1369 	 30.6422 	 47.529 	 
H 	 -28.3288 	 31.0749 	 48.1413 	 
H 	 -29.8783 	 30.4336 	 48.2591 	 
H 	 -28.8631 	 29.638 	 47.1718 	 
S 	 -35.2876 	 34.1029 	 43.5508 	 
C 	 -35.7847 	 35.72 	 43.5386 	 
C 	 -34.7351 	 36.6759 	 43.5371 	 
C 	 -33.5191 	 36.0049 	 43.5303 	 
C 	 -33.5628 	 34.5968 	 43.51 	 
H 	 -34.8594 	 37.783 	 43.6163 	 
C 	 -32.2873 	 36.7124 	 43.4609 	 
H 	 -31.9582 	 36.8727 	 42.4266 	 
H 	 -31.4586 	 36.044 	 43.7552 	 
C 	 -32.1526 	 38.0142 	 44.3444 	 
H 	 -32.7558 	 38.8227 	 43.8831 	 
H 	 -31.1473 	 38.498 	 44.4071 	 
C 	 -32.6601 	 37.8766 	 45.7903 	 
H 	 -33.7494 	 37.6496 	 45.6608 	 
H 	 -32.4199 	 38.7436 	 46.4082 	 
H 	 -32.2261 	 37.0254 	 46.2213 	 
H 	 -30.0172 	 31.0234 	 42.6382 	 
H 	 -36.8334 	 35.9389 	 43.5895 	 
