34

S 	 -28.3562 	 63.4302 	 107.408 	 
C 	 -28.2824 	 64.5513 	 106.051 	 
C 	 -29.4584 	 64.6324 	 105.312 	 
C 	 -30.461 	 63.8493 	 105.928 	 
C 	 -30.0512 	 63.0749 	 107.02 	 
H 	 -31.4611 	 63.8013 	 105.511 	 
C 	 -29.7662 	 65.4465 	 104.084 	 
H 	 -29.0254 	 66.1509 	 104.012 	 
H 	 -30.6218 	 66.1181 	 104.148 	 
C 	 -29.7871 	 64.6654 	 102.706 	 
H 	 -29.9721 	 65.4238 	 101.927 	 
H 	 -28.7554 	 64.383 	 102.533 	 
C 	 -30.67 	 63.4306 	 102.673 	 
H 	 -30.4362 	 62.7629 	 103.44 	 
H 	 -31.6492 	 63.7925 	 102.852 	 
H 	 -30.5654 	 63.0863 	 101.665 	 
S 	 -31.3088 	 63.0055 	 109.484 	 
C 	 -32.5273 	 61.7578 	 109.792 	 
C 	 -32.6596 	 60.9137 	 108.727 	 
C 	 -31.7668 	 61.2543 	 107.682 	 
C 	 -30.9046 	 62.3205 	 107.876 	 
H 	 -33.4489 	 60.1599 	 108.738 	 
C 	 -31.9534 	 60.707 	 106.28 	 
H 	 -31.2386 	 61.1885 	 105.592 	 
H 	 -32.9362 	 61.0012 	 105.979 	 
C 	 -31.9839 	 59.1704 	 106.183 	 
H 	 -32.4002 	 58.6692 	 107.067 	 
H 	 -30.866 	 58.9039 	 106.044 	 
C 	 -32.8692 	 58.7164 	 105.042 	 
H 	 -33.1073 	 57.6534 	 105.218 	 
H 	 -32.4545 	 58.8397 	 104.035 	 
H 	 -33.7662 	 59.2303 	 105.101 	 
H 	 -27.407 	 65.1062 	 105.673 	 
H 	 -33.1075 	 61.7173 	 110.711 	 
