34

S 	 -25.953 	 51.1142 	 65.043 	 
C 	 -25.0139 	 50.8009 	 63.6028 	 
C 	 -23.633 	 50.6265 	 63.8188 	 
C 	 -23.3107 	 50.9176 	 65.1772 	 
C 	 -24.4162 	 51.2563 	 65.9658 	 
H 	 -22.4156 	 50.6724 	 65.6553 	 
C 	 -22.6238 	 50.213 	 62.7963 	 
H 	 -22.1194 	 51.1281 	 62.5098 	 
H 	 -23.1486 	 49.8115 	 61.9439 	 
C 	 -21.5409 	 49.1346 	 63.0966 	 
H 	 -20.877 	 49.0398 	 62.1532 	 
H 	 -20.7572 	 49.489 	 63.8132 	 
C 	 -22.1021 	 47.8253 	 63.5492 	 
H 	 -22.5434 	 47.9601 	 64.5717 	 
H 	 -22.9818 	 47.5527 	 62.9945 	 
H 	 -21.4065 	 46.9569 	 63.5807 	 
S 	 -23.6946 	 53.0033 	 67.8827 	 
C 	 -23.9369 	 52.5705 	 69.5579 	 
C 	 -24.6679 	 51.3986 	 69.7321 	 
C 	 -24.8987 	 50.7791 	 68.467 	 
C 	 -24.4485 	 51.4936 	 67.3865 	 
H 	 -24.7693 	 51.0402 	 70.6981 	 
C 	 -25.5604 	 49.433 	 68.2579 	 
H 	 -26.4851 	 49.6961 	 67.7071 	 
H 	 -25.8619 	 49.0378 	 69.235 	 
C 	 -24.5943 	 48.4274 	 67.6245 	 
H 	 -23.9071 	 48.3174 	 68.4473 	 
H 	 -24.1627 	 48.851 	 66.7255 	 
C 	 -25.263 	 47.0861 	 67.1604 	 
H 	 -25.9598 	 46.648 	 67.8899 	 
H 	 -24.5 	 46.3756 	 66.9645 	 
H 	 -25.7977 	 47.1834 	 66.2302 	 
H 	 -25.406 	 50.6224 	 62.6285 	 
H 	 -23.5665 	 53.0325 	 70.3851 	 
