34

S 	 -74.3955 	 43.9119 	 125.287 	 
C 	 -73.0858 	 43.0401 	 124.507 	 
C 	 -71.9146 	 43.7356 	 124.683 	 
C 	 -72.052 	 44.9327 	 125.451 	 
C 	 -73.3633 	 45.2363 	 125.783 	 
H 	 -71.2359 	 45.5512 	 125.806 	 
C 	 -70.5772 	 43.3924 	 124.009 	 
H 	 -70.7363 	 42.5473 	 123.445 	 
H 	 -69.8698 	 43.0239 	 124.713 	 
C 	 -69.8007 	 44.5072 	 123.244 	 
H 	 -69.9034 	 45.4384 	 123.876 	 
H 	 -68.714 	 44.2771 	 123.066 	 
C 	 -70.541 	 44.9655 	 121.963 	 
H 	 -71.5599 	 45.2684 	 122.12 	 
H 	 -70.046 	 45.8165 	 121.52 	 
H 	 -70.6937 	 44.1839 	 121.231 	 
S 	 -75.2044 	 47.2426 	 125.568 	 
C 	 -75.0335 	 48.6305 	 126.508 	 
C 	 -74.1293 	 48.4473 	 127.532 	 
C 	 -73.3676 	 47.2715 	 127.369 	 
C 	 -73.8715 	 46.489 	 126.32 	 
H 	 -74.0621 	 49.2814 	 128.179 	 
C 	 -72.1948 	 46.8606 	 128.268 	 
H 	 -71.5088 	 47.7397 	 128.307 	 
H 	 -71.5451 	 46.0561 	 127.819 	 
C 	 -72.6542 	 46.3092 	 129.679 	 
H 	 -73.0999 	 47.0895 	 130.18 	 
H 	 -71.7817 	 46.0981 	 130.338 	 
C 	 -73.5501 	 45.0467 	 129.654 	 
H 	 -73.8301 	 45.092 	 130.673 	 
H 	 -73.0135 	 44.0949 	 129.389 	 
H 	 -74.5112 	 45.2202 	 129.138 	 
H 	 -73.1744 	 42.136 	 123.874 	 
H 	 -75.43 	 49.668 	 126.339 	 
