34

S 	 40.0394 	 23.8212 	 95.3105 	 
C 	 41.38 	 24.8547 	 94.8836 	 
C 	 42.5377 	 24.1714 	 94.6252 	 
C 	 42.4595 	 22.7539 	 94.906 	 
C 	 41.1238 	 22.4232 	 95.3177 	 
H 	 43.2076 	 21.982 	 94.7324 	 
C 	 43.757 	 24.7618 	 94.0287 	 
H 	 43.596 	 25.8959 	 93.8818 	 
H 	 43.9595 	 24.3365 	 93.0499 	 
C 	 45.097 	 24.6157 	 94.8437 	 
H 	 45.2557 	 23.5555 	 94.8522 	 
H 	 45.8849 	 25.1314 	 94.2964 	 
C 	 44.9684 	 25.1402 	 96.2523 	 
H 	 45.9896 	 25.0508 	 96.7611 	 
H 	 44.804 	 26.1674 	 96.2996 	 
H 	 44.2563 	 24.7636 	 96.9108 	 
S 	 40.375 	 20.821 	 97.4509 	 
C 	 39.9843 	 19.1477 	 97.1709 	 
C 	 40.2413 	 18.8072 	 95.8516 	 
C 	 40.7983 	 19.875 	 95.1057 	 
C 	 40.6897 	 21.1176 	 95.7306 	 
H 	 40.3646 	 17.7853 	 95.5463 	 
C 	 41.3645 	 19.5485 	 93.735 	 
H 	 41.3097 	 20.4262 	 93.1304 	 
H 	 40.6948 	 18.8999 	 93.2595 	 
C 	 42.697 	 18.7779 	 93.8326 	 
H 	 42.5799 	 18.0595 	 94.6881 	 
H 	 43.4981 	 19.4559 	 94.1899 	 
C 	 43.0655 	 17.9853 	 92.5293 	 
H 	 44.0904 	 17.6985 	 92.7372 	 
H 	 43.0261 	 18.5989 	 91.5938 	 
H 	 42.4555 	 17.1495 	 92.4983 	 
H 	 41.3151 	 25.9119 	 94.6174 	 
H 	 39.7823 	 18.3511 	 97.9201 	 
