34

S 	 68.5435 	 24.242 	 74.6938 	 
C 	 69.3022 	 23.3955 	 76.0291 	 
C 	 70.5768 	 23.8548 	 76.237 	 
C 	 70.8672 	 24.9893 	 75.4377 	 
C 	 69.8067 	 25.4861 	 74.6521 	 
H 	 71.7997 	 25.5146 	 75.4565 	 
C 	 71.6156 	 23.1859 	 77.1288 	 
H 	 72.4482 	 22.891 	 76.4367 	 
H 	 71.3479 	 22.2136 	 77.5239 	 
C 	 72.1929 	 24.0416 	 78.224 	 
H 	 73.041 	 23.4374 	 78.7028 	 
H 	 72.7502 	 24.8511 	 77.8143 	 
C 	 71.2293 	 24.3936 	 79.2828 	 
H 	 70.5003 	 25.068 	 79.006 	 
H 	 70.7995 	 23.4802 	 79.7031 	 
H 	 71.7312 	 24.9882 	 80.0413 	 
S 	 69.598 	 26.7873 	 72.1562 	 
C 	 69.6536 	 28.5635 	 72.2119 	 
C 	 69.7757 	 29.1107 	 73.5166 	 
C 	 69.8875 	 28.0445 	 74.4802 	 
C 	 69.8774 	 26.7734 	 73.9156 	 
H 	 69.7444 	 30.1624 	 73.6742 	 
C 	 70.0557 	 28.3583 	 75.9229 	 
H 	 70.2041 	 27.4816 	 76.524 	 
H 	 69.1795 	 28.8375 	 76.28 	 
C 	 71.2649 	 29.2658 	 76.2401 	 
H 	 71.1772 	 30.2859 	 75.8316 	 
H 	 72.1495 	 28.9214 	 75.7578 	 
C 	 71.4398 	 29.4451 	 77.75 	 
H 	 71.4549 	 28.4404 	 78.1463 	 
H 	 70.6207 	 29.953 	 78.3477 	 
H 	 72.4364 	 29.7716 	 77.9583 	 
H 	 68.9594 	 22.4607 	 76.4182 	 
H 	 69.4977 	 29.1494 	 71.2649 	 
