34

S 	 46.2212 	 5.38013 	 88.9065 	 
C 	 47.0306 	 6.54174 	 87.9098 	 
C 	 47.7581 	 5.90395 	 86.9295 	 
C 	 47.8617 	 4.50051 	 87.2154 	 
C 	 47.1545 	 4.01449 	 88.3763 	 
H 	 48.4792 	 3.71099 	 86.6719 	 
C 	 48.3104 	 6.53073 	 85.6317 	 
H 	 49.2024 	 5.99697 	 85.3016 	 
H 	 48.6725 	 7.51731 	 85.917 	 
C 	 47.3819 	 6.68706 	 84.3763 	 
H 	 47.9693 	 7.2431 	 83.6332 	 
H 	 47.2178 	 5.64964 	 83.9626 	 
C 	 46.0657 	 7.42098 	 84.6095 	 
H 	 45.3222 	 6.8407 	 85.1763 	 
H 	 46.3867 	 8.2551 	 85.3148 	 
H 	 45.7503 	 7.91166 	 83.6957 	 
S 	 47.202 	 2.59592 	 90.6699 	 
C 	 47.2464 	 0.919671 	 90.6582 	 
C 	 47.1247 	 0.407232 	 89.3481 	 
C 	 47.0838 	 1.44459 	 88.3286 	 
C 	 47.1514 	 2.65513 	 88.9272 	 
H 	 47.0361 	 -0.670877 	 89.0833 	 
C 	 47.0121 	 1.12915 	 86.8232 	 
H 	 47.1707 	 0.0730758 	 86.6848 	 
H 	 47.8628 	 1.52598 	 86.2761 	 
C 	 45.7992 	 1.34416 	 86.0169 	 
H 	 45.5954 	 2.39328 	 86.0683 	 
H 	 44.8846 	 0.981542 	 86.4894 	 
C 	 45.8225 	 0.915846 	 84.5588 	 
H 	 46.6136 	 1.36424 	 83.9587 	 
H 	 44.9378 	 1.18231 	 84.0101 	 
H 	 45.9804 	 -0.18941 	 84.4188 	 
H 	 46.7147 	 7.55681 	 87.9053 	 
H 	 47.2878 	 0.213497 	 91.4954 	 
