34

S 	 4.95661 	 -10.4458 	 76.3236 	 
C 	 3.24293 	 -10.4017 	 76.782 	 
C 	 2.49612 	 -9.76459 	 75.8367 	 
C 	 3.32015 	 -9.07146 	 74.9443 	 
C 	 4.64828 	 -9.42701 	 74.9598 	 
H 	 2.92674 	 -8.35764 	 74.1781 	 
C 	 0.986392 	 -9.51018 	 75.8217 	 
H 	 0.817451 	 -9.09292 	 74.8134 	 
H 	 0.68712 	 -8.74964 	 76.4894 	 
C 	 0.174312 	 -10.8491 	 75.9816 	 
H 	 0.547301 	 -11.6223 	 75.3936 	 
H 	 0.389572 	 -11.1403 	 77.0372 	 
C 	 -1.28465 	 -10.8019 	 75.6138 	 
H 	 -1.75075 	 -9.81515 	 75.7977 	 
H 	 -1.4601 	 -10.9927 	 74.519 	 
H 	 -1.75417 	 -11.611 	 76.1481 	 
S 	 6.68069 	 -7.39045 	 74.9787 	 
C 	 7.6117 	 -7.08385 	 73.5076 	 
C 	 7.27793 	 -8.03062 	 72.5302 	 
C 	 6.22512 	 -8.95164 	 72.9015 	 
C 	 5.77586 	 -8.7537 	 74.2414 	 
H 	 7.89793 	 -8.09981 	 71.696 	 
C 	 6.03389 	 -10.2228 	 72.092 	 
H 	 6.57061 	 -11.0769 	 72.6194 	 
H 	 6.4921 	 -10.1199 	 71.0887 	 
C 	 4.59617 	 -10.7794 	 71.696 	 
H 	 3.99032 	 -10.0134 	 71.2293 	 
H 	 4.03238 	 -11.028 	 72.5578 	 
C 	 4.61097 	 -11.9373 	 70.6802 	 
H 	 4.85587 	 -11.7337 	 69.6581 	 
H 	 3.63681 	 -12.403 	 70.5506 	 
H 	 5.16418 	 -12.7875 	 71 	 
H 	 2.80335 	 -10.9049 	 77.6587 	 
H 	 8.34889 	 -6.22072 	 73.4402 	 
