34

S 	 -0.15054 	 43.5291 	 35.6334 	 
C 	 -0.908972 	 43.1351 	 37.178 	 
C 	 -0.880458 	 44.2144 	 38.0579 	 
C 	 -0.117676 	 45.3217 	 37.4767 	 
C 	 0.247708 	 45.1629 	 36.1591 	 
H 	 -0.0545696 	 46.3181 	 38.0455 	 
C 	 -1.3391 	 44.206 	 39.4955 	 
H 	 -2.26848 	 43.5689 	 39.6751 	 
H 	 -1.59518 	 45.2106 	 39.7383 	 
C 	 -0.212318 	 43.6604 	 40.4923 	 
H 	 -0.141743 	 42.6034 	 40.3795 	 
H 	 0.757423 	 44.0707 	 40.1758 	 
C 	 -0.607877 	 44.2097 	 41.9425 	 
H 	 -0.304259 	 45.2403 	 41.9816 	 
H 	 -1.57523 	 44.0946 	 42.3765 	 
H 	 0.0939285 	 43.9254 	 42.6211 	 
S 	 2.62721 	 45.484 	 34.9631 	 
C 	 2.89873 	 46.8466 	 33.9229 	 
C 	 1.90723 	 47.7841 	 34.0265 	 
C 	 0.849487 	 47.3798 	 34.8822 	 
C 	 1.009 	 46.0913 	 35.3516 	 
H 	 2.13664 	 48.7017 	 33.4437 	 
C 	 -0.293257 	 48.346 	 35.1794 	 
H 	 0.0423468 	 49.3349 	 34.8012 	 
H 	 -0.431266 	 48.4636 	 36.3323 	 
C 	 -1.66611 	 47.8883 	 34.5704 	 
H 	 -2.40963 	 48.5889 	 34.9923 	 
H 	 -1.90243 	 46.9766 	 35.1392 	 
C 	 -1.70075 	 47.6568 	 33.1145 	 
H 	 -2.77453 	 47.3818 	 32.94 	 
H 	 -1.06618 	 46.9386 	 32.6426 	 
H 	 -1.5312 	 48.6226 	 32.727 	 
H 	 -1.35922 	 42.1658 	 37.2753 	 
H 	 3.74887 	 46.9142 	 33.2779 	 
