34

S 	 -117.729 	 45.5077 	 135.171 	 
C 	 -118.674 	 46.9593 	 135.461 	 
C 	 -117.932 	 48.0674 	 135.077 	 
C 	 -116.566 	 47.744 	 134.73 	 
C 	 -116.29 	 46.3835 	 134.643 	 
H 	 -115.765 	 48.3991 	 134.448 	 
C 	 -118.45 	 49.4803 	 135.307 	 
H 	 -117.999 	 49.8641 	 136.281 	 
H 	 -119.461 	 49.3347 	 135.423 	 
C 	 -118.045 	 50.5268 	 134.284 	 
H 	 -118.116 	 51.5736 	 134.631 	 
H 	 -116.964 	 50.3987 	 134.063 	 
C 	 -118.969 	 50.4282 	 133.058 	 
H 	 -120.026 	 50.7393 	 133.256 	 
H 	 -118.57 	 50.9153 	 132.186 	 
H 	 -119.076 	 49.4229 	 132.619 	 
S 	 -115.095 	 43.9422 	 134.316 	 
C 	 -113.413 	 43.8695 	 134.314 	 
C 	 -112.828 	 45.1135 	 134.524 	 
C 	 -113.788 	 46.1266 	 134.751 	 
C 	 -115.044 	 45.6837 	 134.442 	 
H 	 -111.759 	 45.2966 	 134.704 	 
C 	 -113.403 	 47.5331 	 135.231 	 
H 	 -112.395 	 47.3719 	 135.664 	 
H 	 -114.076 	 47.9451 	 136.022 	 
C 	 -113.069 	 48.4056 	 133.993 	 
H 	 -113.855 	 48.2609 	 133.246 	 
H 	 -112.074 	 48.1127 	 133.514 	 
C 	 -112.941 	 49.828 	 134.467 	 
H 	 -112.834 	 50.5391 	 133.603 	 
H 	 -112.093 	 50.0164 	 135.083 	 
H 	 -113.862 	 50.0361 	 135.011 	 
H 	 -119.68 	 46.8995 	 135.861 	 
H 	 -112.791 	 42.9741 	 134.124 	 
