34

S 	 -13.9283 	 41.4826 	 34.047 	 
C 	 -14.3336 	 40.0698 	 34.9671 	 
C 	 -13.8358 	 38.9177 	 34.3767 	 
C 	 -12.8847 	 39.2711 	 33.3668 	 
C 	 -12.8435 	 40.5737 	 33.0424 	 
H 	 -12.2801 	 38.5088 	 32.8369 	 
C 	 -13.9774 	 37.5512 	 34.9194 	 
H 	 -13.9492 	 37.5056 	 36.0226 	 
H 	 -13.1673 	 36.8575 	 34.6804 	 
C 	 -15.2898 	 36.9098 	 34.5265 	 
H 	 -15.4406 	 35.965 	 34.953 	 
H 	 -16.1219 	 37.4314 	 35.0364 	 
C 	 -15.6283 	 37.0291 	 33.0851 	 
H 	 -15.8692 	 38.0909 	 32.886 	 
H 	 -14.8236 	 36.6905 	 32.3946 	 
H 	 -16.3748 	 36.3373 	 32.7274 	 
S 	 -10.5 	 41.687 	 32.207 	 
C 	 -10.3701 	 42.1925 	 30.5219 	 
C 	 -11.519 	 41.9092 	 29.7592 	 
C 	 -12.4609 	 41.2393 	 30.5588 	 
C 	 -12.1802 	 41.1718 	 31.9501 	 
H 	 -11.4876 	 42.1734 	 28.702 	 
C 	 -13.7864 	 40.8915 	 29.9563 	 
H 	 -13.9118 	 41.6861 	 29.262 	 
H 	 -14.5842 	 40.9024 	 30.7078 	 
C 	 -13.7845 	 39.5371 	 29.1737 	 
H 	 -14.8286 	 39.3452 	 28.8265 	 
H 	 -13.615 	 38.7617 	 29.934 	 
C 	 -12.9249 	 39.4622 	 27.9437 	 
H 	 -13.03 	 38.4768 	 27.3719 	 
H 	 -11.812 	 39.4929 	 28.1411 	 
H 	 -13.1957 	 40.2166 	 27.272 	 
H 	 -15.0617 	 40.0439 	 35.8136 	 
H 	 -9.46847 	 42.6738 	 30.0283 	 
