34

S 	 55.9237 	 11.058 	 70.364 	 
C 	 56.8177 	 11.783 	 71.7363 	 
C 	 56.9172 	 10.8963 	 72.8238 	 
C 	 56.4369 	 9.62471 	 72.4585 	 
C 	 55.9197 	 9.56922 	 71.2006 	 
H 	 56.521 	 8.68323 	 72.9067 	 
C 	 57.4346 	 11.1364 	 74.2892 	 
H 	 56.618 	 10.777 	 74.9969 	 
H 	 57.4037 	 12.2668 	 74.4085 	 
C 	 58.8556 	 10.5743 	 74.5389 	 
H 	 58.8509 	 9.53223 	 74.1359 	 
H 	 59.5071 	 11.154 	 73.9739 	 
C 	 59.2618 	 10.5082 	 76.0136 	 
H 	 59.2662 	 11.5908 	 76.398 	 
H 	 58.6583 	 9.85769 	 76.6216 	 
H 	 60.307 	 10.0878 	 76.0635 	 
S 	 56.635 	 6.97908 	 70.6073 	 
C 	 55.3779 	 5.92411 	 69.7946 	 
C 	 54.2744 	 6.61668 	 69.4508 	 
C 	 54.3411 	 7.91936 	 69.9251 	 
C 	 55.4706 	 8.30839 	 70.6141 	 
H 	 53.4828 	 6.13339 	 68.9392 	 
C 	 53.1429 	 8.8593 	 69.6921 	 
H 	 53.3718 	 9.77776 	 70.1474 	 
H 	 52.4282 	 8.34213 	 70.3204 	 
C 	 52.6494 	 9.0112 	 68.2436 	 
H 	 52.4356 	 8.02309 	 67.8147 	 
H 	 53.4755 	 9.53553 	 67.7524 	 
C 	 51.4157 	 9.88712 	 68.1942 	 
H 	 51.4944 	 10.8896 	 68.532 	 
H 	 50.7182 	 9.37616 	 68.8511 	 
H 	 51.0611 	 9.85716 	 67.1534 	 
H 	 57.0729 	 12.7931 	 71.8912 	 
H 	 55.4961 	 4.87888 	 69.4012 	 
