34

S 	 13.9165 	 34.2871 	 60.9788 	 
C 	 15.3978 	 33.5408 	 61.4603 	 
C 	 16.1862 	 34.4488 	 62.2141 	 
C 	 15.5554 	 35.7321 	 62.2427 	 
C 	 14.3231 	 35.9035 	 61.6296 	 
H 	 15.7921 	 36.5679 	 62.9224 	 
C 	 17.5356 	 34.1786 	 62.7002 	 
H 	 17.9582 	 33.4139 	 62.1191 	 
H 	 17.1942 	 33.7878 	 63.6499 	 
C 	 18.498 	 35.4088 	 62.9048 	 
H 	 18.1039 	 36.0596 	 63.6774 	 
H 	 19.4141 	 35.0058 	 63.225 	 
C 	 18.9264 	 36.0797 	 61.5702 	 
H 	 19.4369 	 35.4783 	 60.8157 	 
H 	 18.0709 	 36.5788 	 61.1333 	 
H 	 19.6759 	 36.8529 	 61.6209 	 
S 	 12.0828 	 36.5995 	 62.9106 	 
C 	 11.4929 	 38.2829 	 62.8394 	 
C 	 12.2082 	 39.0609 	 61.9612 	 
C 	 13.2683 	 38.3931 	 61.2741 	 
C 	 13.4151 	 37.0664 	 61.7871 	 
H 	 12.0056 	 40.114 	 61.9134 	 
C 	 14.2688 	 39.2567 	 60.443 	 
H 	 15.0154 	 38.4913 	 60.2214 	 
H 	 14.6296 	 40.1358 	 61.0222 	 
C 	 13.6464 	 39.7177 	 59.1509 	 
H 	 14.1567 	 40.4892 	 58.5956 	 
H 	 12.6707 	 40.1393 	 59.3539 	 
C 	 13.4767 	 38.6618 	 58.0712 	 
H 	 14.4316 	 38.2355 	 57.7735 	 
H 	 13.08 	 39.0556 	 57.1163 	 
H 	 13.0418 	 37.8348 	 58.5917 	 
H 	 15.5338 	 32.4927 	 61.2122 	 
H 	 10.6701 	 38.6479 	 63.4386 	 
