34

S 	 -6.24634 	 73.9212 	 48.4863 	 
C 	 -4.97528 	 75.12 	 48.1463 	 
C 	 -5.14382 	 75.7399 	 46.9159 	 
C 	 -6.32025 	 75.1867 	 46.2894 	 
C 	 -7.08725 	 74.336 	 47.0885 	 
H 	 -6.69276 	 75.2761 	 45.2768 	 
C 	 -4.25036 	 76.6776 	 46.2242 	 
H 	 -4.21707 	 76.3286 	 45.1584 	 
H 	 -3.1891 	 76.6226 	 46.502 	 
C 	 -4.68692 	 78.1193 	 46.1057 	 
H 	 -5.71512 	 78.0906 	 45.6902 	 
H 	 -4.6923 	 78.7051 	 47.1007 	 
C 	 -3.73441 	 78.9381 	 45.2819 	 
H 	 -3.5838 	 78.3561 	 44.3328 	 
H 	 -4.08066 	 79.8998 	 45.0382 	 
H 	 -2.85339 	 79.0757 	 45.9556 	 
S 	 -8.34098 	 71.8726 	 47.1504 	 
C 	 -9.74168 	 71.6369 	 46.1356 	 
C 	 -10.0991 	 72.7248 	 45.3986 	 
C 	 -9.16756 	 73.7997 	 45.6412 	 
C 	 -8.24675 	 73.5688 	 46.695 	 
H 	 -10.8958 	 72.7024 	 44.6828 	 
C 	 -9.43383 	 75.1557 	 45.1204 	 
H 	 -10.2406 	 74.9691 	 44.4183 	 
H 	 -8.59955 	 75.4747 	 44.4761 	 
C 	 -9.67184 	 76.2889 	 46.0733 	 
H 	 -8.77608 	 76.4873 	 46.6353 	 
H 	 -10.456 	 75.9564 	 46.7118 	 
C 	 -10.0653 	 77.563 	 45.3013 	 
H 	 -10.4606 	 78.3302 	 45.9677 	 
H 	 -10.6811 	 77.2157 	 44.449 	 
H 	 -9.3579 	 78.0994 	 44.7411 	 
H 	 -4.31071 	 75.478 	 48.9084 	 
H 	 -10.319 	 70.7723 	 46.1801 	 
