34

S 	 -15.1989 	 30.2742 	 37.211 	 
C 	 -15.3717 	 30.9738 	 38.7955 	 
C 	 -14.8475 	 32.3086 	 38.7282 	 
C 	 -14.1702 	 32.7132 	 37.5106 	 
C 	 -14.2739 	 31.6945 	 36.5452 	 
H 	 -13.629 	 33.6696 	 37.4139 	 
C 	 -15.0781 	 33.354 	 39.7871 	 
H 	 -14.1569 	 33.8444 	 39.8956 	 
H 	 -15.2857 	 32.8 	 40.6392 	 
C 	 -16.1859 	 34.2826 	 39.4271 	 
H 	 -17.121 	 33.7383 	 39.342 	 
H 	 -16.4424 	 34.8878 	 40.3665 	 
C 	 -16.1273 	 35.0917 	 38.0477 	 
H 	 -16.3031 	 34.5538 	 37.1403 	 
H 	 -16.9202 	 35.8298 	 38.0127 	 
H 	 -15.1808 	 35.6221 	 37.934 	 
S 	 -12.763 	 30.4391 	 34.6175 	 
C 	 -12.8721 	 30.8676 	 32.963 	 
C 	 -13.6563 	 32.0245 	 32.8943 	 
C 	 -14.1395 	 32.5346 	 34.135 	 
C 	 -13.7691 	 31.7299 	 35.191 	 
H 	 -13.8108 	 32.4274 	 31.9183 	 
C 	 -15.217 	 33.6756 	 34.1476 	 
H 	 -15.9468 	 33.3099 	 34.752 	 
H 	 -15.6187 	 33.798 	 33.1258 	 
C 	 -14.6944 	 35.0852 	 34.5553 	 
H 	 -13.8535 	 35.3819 	 33.8968 	 
H 	 -14.2175 	 35.0203 	 35.4938 	 
C 	 -15.8042 	 36.1032 	 34.5975 	 
H 	 -15.4559 	 37.0652 	 35.1514 	 
H 	 -16.6268 	 35.689 	 35.1621 	 
H 	 -16.1538 	 36.2948 	 33.6211 	 
H 	 -16.0034 	 30.6711 	 39.6079 	 
H 	 -12.2933 	 30.4935 	 32.1479 	 
