34

S 	 -39.9743 	 30.1299 	 75.8154 	 
C 	 -38.7218 	 30.2688 	 74.5456 	 
C 	 -37.4843 	 30.1656 	 75.082 	 
C 	 -37.5537 	 29.6643 	 76.4158 	 
C 	 -38.8124 	 29.6194 	 77.0245 	 
H 	 -36.7987 	 29.367 	 77.0465 	 
C 	 -36.1837 	 30.4308 	 74.2709 	 
H 	 -36.3842 	 30.2325 	 73.1966 	 
H 	 -35.3564 	 29.7201 	 74.5775 	 
C 	 -35.5356 	 31.8675 	 74.3536 	 
H 	 -36.3905 	 32.534 	 74.2215 	 
H 	 -35.0707 	 32.1563 	 75.3013 	 
C 	 -34.4547 	 31.976 	 73.2143 	 
H 	 -34.951 	 31.8668 	 72.2612 	 
H 	 -34.0331 	 32.9473 	 73.2864 	 
H 	 -33.565 	 31.4279 	 73.3427 	 
S 	 -38.8731 	 27.44 	 78.6933 	 
C 	 -39.065 	 27.6848 	 80.3775 	 
C 	 -39.4992 	 28.9398 	 80.6325 	 
C 	 -39.5239 	 29.8222 	 79.521 	 
C 	 -39.1125 	 29.1225 	 78.361 	 
H 	 -39.7388 	 29.3167 	 81.5932 	 
C 	 -39.8378 	 31.3015 	 79.6156 	 
H 	 -40.8658 	 31.5696 	 79.8794 	 
H 	 -39.7804 	 31.7399 	 78.6019 	 
C 	 -38.8758 	 32.1636 	 80.3783 	 
H 	 -39.0115 	 32.125 	 81.4865 	 
H 	 -38.9373 	 33.2568 	 80.098 	 
C 	 -37.3986 	 31.9195 	 80.1537 	 
H 	 -37.0223 	 30.9241 	 80.3424 	 
H 	 -36.6908 	 32.6816 	 80.481 	 
H 	 -37.2867 	 31.9643 	 79.0245 	 
H 	 -38.8357 	 30.7549 	 73.567 	 
H 	 -39.156 	 26.9004 	 81.1403 	 
