34

S 	 2.34529 	 16.6296 	 52.9886 	 
C 	 2.77949 	 16.5651 	 51.3038 	 
C 	 1.78859 	 17.2242 	 50.5461 	 
C 	 0.746205 	 17.7496 	 51.3202 	 
C 	 0.878909 	 17.5786 	 52.6622 	 
H 	 -0.137738 	 18.3704 	 50.9846 	 
C 	 1.91814 	 17.6831 	 49.0637 	 
H 	 2.84801 	 18.1695 	 48.8814 	 
H 	 1.23601 	 18.5312 	 48.8806 	 
C 	 1.72866 	 16.5202 	 48.0811 	 
H 	 2.53242 	 15.8005 	 48.2917 	 
H 	 0.749421 	 16.0516 	 48.2287 	 
C 	 1.96838 	 16.8488 	 46.5938 	 
H 	 2.60451 	 17.7852 	 46.4965 	 
H 	 2.42268 	 16.0099 	 46.0118 	 
H 	 1.02151 	 17.1444 	 46.0456 	 
S 	 -1.2673 	 16.4323 	 53.9425 	 
C 	 -2.45099 	 17.5809 	 54.6354 	 
C 	 -1.92154 	 18.834 	 54.7869 	 
C 	 -0.557639 	 19.0124 	 54.2878 	 
C 	 -0.16475 	 17.8207 	 53.643 	 
H 	 -2.43199 	 19.641 	 55.3611 	 
C 	 0.171042 	 20.3673 	 54.3282 	 
H 	 0.0365269 	 20.8718 	 53.3742 	 
H 	 1.22422 	 20.1751 	 54.2323 	 
C 	 -0.148615 	 21.3648 	 55.4841 	 
H 	 -1.1976 	 21.5997 	 55.3505 	 
H 	 0.424464 	 22.1337 	 55.1804 	 
C 	 0.180627 	 20.9494 	 56.8972 	 
H 	 -0.0637688 	 21.6694 	 57.6695 	 
H 	 1.29373 	 20.7882 	 57.0371 	 
H 	 -0.362779 	 20.036 	 57.0519 	 
H 	 3.66503 	 16.4456 	 50.7123 	 
H 	 -3.37138 	 17.4451 	 55.1268 	 
