34

S 	 -38.1539 	 11.9647 	 77.8319 	 
C 	 -37.3754 	 12.4382 	 76.3014 	 
C 	 -38.0266 	 13.5562 	 75.7272 	 
C 	 -39.1968 	 13.9597 	 76.5517 	 
C 	 -39.3899 	 13.2152 	 77.6883 	 
H 	 -39.8823 	 14.8465 	 76.3802 	 
C 	 -37.5918 	 14.1767 	 74.4309 	 
H 	 -38.2003 	 14.9957 	 74.1673 	 
H 	 -37.6912 	 13.4135 	 73.6312 	 
C 	 -36.1725 	 14.7226 	 74.3776 	 
H 	 -35.4591 	 13.8899 	 74.6674 	 
H 	 -35.9439 	 14.9681 	 73.3764 	 
C 	 -35.961 	 15.9295 	 75.2345 	 
H 	 -36.178 	 15.7408 	 76.2705 	 
H 	 -34.8615 	 16.1785 	 75.1273 	 
H 	 -36.6009 	 16.7542 	 74.8108 	 
S 	 -40.0099 	 12.9256 	 80.2226 	 
C 	 -41.598 	 13.177 	 80.7185 	 
C 	 -42.48 	 13.3342 	 79.6678 	 
C 	 -41.8039 	 13.4327 	 78.3974 	 
C 	 -40.4557 	 13.2246 	 78.5862 	 
H 	 -43.5358 	 13.5589 	 79.7995 	 
C 	 -42.6274 	 13.651 	 77.1675 	 
H 	 -42.0331 	 14.191 	 76.434 	 
H 	 -43.4152 	 14.3171 	 77.4399 	 
C 	 -43.1465 	 12.3572 	 76.4705 	 
H 	 -42.3849 	 11.593 	 76.4705 	 
H 	 -43.3888 	 12.6347 	 75.3902 	 
C 	 -44.4283 	 11.7929 	 77.1094 	 
H 	 -44.8259 	 11.1398 	 76.3971 	 
H 	 -45.2217 	 12.5239 	 77.3488 	 
H 	 -44.2552 	 11.1946 	 78.0398 	 
H 	 -36.5287 	 11.9041 	 75.8471 	 
H 	 -41.8992 	 13.0428 	 81.7718 	 
