34

S 	 16.3507 	 0.235951 	 67.2039 	 
C 	 15.1046 	 0.183482 	 65.9537 	 
C 	 15.3682 	 1.04149 	 64.91 	 
C 	 16.5537 	 1.67387 	 65.1058 	 
C 	 17.1654 	 1.48445 	 66.3381 	 
H 	 17.064 	 2.30025 	 64.373 	 
C 	 14.6647 	 1.23791 	 63.4975 	 
H 	 15.0623 	 0.481329 	 62.867 	 
H 	 15.0377 	 2.18941 	 63.0645 	 
C 	 13.1717 	 0.974477 	 63.506 	 
H 	 12.7976 	 0.745768 	 62.4989 	 
H 	 12.8881 	 0.0813871 	 64.0536 	 
C 	 12.3765 	 2.26263 	 64.0036 	 
H 	 12.8943 	 2.68556 	 64.8445 	 
H 	 12.2701 	 3.02078 	 63.3265 	 
H 	 11.3725 	 2.10897 	 64.2931 	 
S 	 19.5917 	 1.06906 	 67.5261 	 
C 	 20.6548 	 2.37319 	 67.583 	 
C 	 20.2664 	 3.61534 	 67.0951 	 
C 	 18.9157 	 3.46167 	 66.5902 	 
C 	 18.4022 	 2.12395 	 66.793 	 
H 	 20.8302 	 4.53366 	 66.9738 	 
C 	 18.1723 	 4.65004 	 66.0075 	 
H 	 17.3855 	 4.37198 	 65.3483 	 
H 	 18.9463 	 5.14622 	 65.4387 	 
C 	 17.5399 	 5.56486 	 67.0783 	 
H 	 16.8383 	 4.90289 	 67.5493 	 
H 	 17.0279 	 6.46564 	 66.608 	 
C 	 18.5635 	 6.08906 	 68.0881 	 
H 	 18.844 	 5.38773 	 68.8897 	 
H 	 18.0783 	 6.93476 	 68.57 	 
H 	 19.4945 	 6.40103 	 67.5847 	 
H 	 14.3456 	 -0.582906 	 65.8889 	 
H 	 21.6705 	 2.2501 	 67.9582 	 
