34

S 	 -34.5113 	 67.2979 	 145.225 	 
C 	 -33.1052 	 66.5544 	 144.563 	 
C 	 -32.4276 	 65.7727 	 145.464 	 
C 	 -33.1412 	 65.6739 	 146.744 	 
C 	 -34.2368 	 66.5081 	 146.844 	 
H 	 -32.8741 	 65.1823 	 147.664 	 
C 	 -31.1846 	 64.9526 	 145.288 	 
H 	 -31.19 	 64.2549 	 146.125 	 
H 	 -30.2697 	 65.5705 	 145.515 	 
C 	 -30.9924 	 64.2679 	 143.867 	 
H 	 -31.3659 	 64.7982 	 142.986 	 
H 	 -29.8355 	 64.2885 	 143.69 	 
C 	 -31.3857 	 62.792 	 143.925 	 
H 	 -31.281 	 62.3284 	 142.974 	 
H 	 -30.6713 	 62.1876 	 144.537 	 
H 	 -32.3349 	 62.5896 	 144.285 	 
S 	 -36.6368 	 67.1305 	 148.087 	 
C 	 -36.6224 	 67.6953 	 149.749 	 
C 	 -35.3861 	 67.6299 	 150.299 	 
C 	 -34.3696 	 67.2421 	 149.365 	 
C 	 -34.8809 	 67.0205 	 148.089 	 
H 	 -35.2875 	 68.1361 	 151.273 	 
C 	 -32.8728 	 67.3587 	 149.756 	 
H 	 -32.9752 	 68.4257 	 150.018 	 
H 	 -32.1963 	 67.3084 	 148.922 	 
C 	 -32.2547 	 66.374 	 150.779 	 
H 	 -33.013 	 66.1805 	 151.516 	 
H 	 -31.4319 	 66.825 	 151.221 	 
C 	 -31.7189 	 65.0732 	 150.249 	 
H 	 -32.5067 	 64.4807 	 149.884 	 
H 	 -31.1233 	 64.4671 	 150.884 	 
H 	 -31.1786 	 65.1853 	 149.32 	 
H 	 -32.6636 	 66.8411 	 143.667 	 
H 	 -37.2949 	 68.3409 	 150.226 	 
