34

S 	 -95.5998 	 60.8178 	 129.974 	 
C 	 -95.6186 	 60.6856 	 131.672 	 
C 	 -94.5562 	 61.3695 	 132.273 	 
C 	 -93.8355 	 62.1385 	 131.301 	 
C 	 -94.3467 	 62.0187 	 129.994 	 
H 	 -93.0516 	 62.825 	 131.484 	 
C 	 -94.2925 	 61.368 	 133.722 	 
H 	 -95.0251 	 62.0411 	 134.048 	 
H 	 -93.2627 	 61.6947 	 133.808 	 
C 	 -94.3556 	 60.0815 	 134.547 	 
H 	 -95.4088 	 59.9487 	 134.748 	 
H 	 -94.0717 	 59.2375 	 133.869 	 
C 	 -93.4344 	 60.0954 	 135.811 	 
H 	 -93.8041 	 60.8973 	 136.46 	 
H 	 -93.4379 	 59.1406 	 136.335 	 
H 	 -92.3656 	 60.414 	 135.581 	 
S 	 -95.1883 	 63.0016 	 127.528 	 
C 	 -94.0136 	 63.8159 	 126.468 	 
C 	 -92.7934 	 63.9333 	 127.091 	 
C 	 -92.7849 	 63.4101 	 128.426 	 
C 	 -93.9189 	 62.6923 	 128.774 	 
H 	 -92.0547 	 64.4436 	 126.591 	 
C 	 -91.4781 	 63.5291 	 129.241 	 
H 	 -91.7737 	 64.1345 	 130.143 	 
H 	 -90.7871 	 64.0795 	 128.624 	 
C 	 -90.7887 	 62.2722 	 129.816 	 
H 	 -90.0185 	 61.888 	 129.142 	 
H 	 -91.4238 	 61.4019 	 129.81 	 
C 	 -90.0872 	 62.6509 	 131.14 	 
H 	 -90.8874 	 62.7966 	 131.814 	 
H 	 -89.3606 	 63.4274 	 131.103 	 
H 	 -89.5483 	 61.755 	 131.551 	 
H 	 -96.3797 	 59.964 	 132.081 	 
H 	 -94.257 	 64.1419 	 125.481 	 
