34

S 	 59.5329 	 -0.402015 	 86.3607 	 
C 	 59.1738 	 0.96723 	 85.3293 	 
C 	 57.847 	 1.25734 	 85.3924 	 
C 	 57.1468 	 0.522503 	 86.4009 	 
C 	 57.8368 	 -0.51287 	 86.8728 	 
H 	 56.102 	 0.585124 	 86.6945 	 
C 	 57.2467 	 2.37487 	 84.4741 	 
H 	 57.8949 	 2.63145 	 83.6412 	 
H 	 57.1976 	 3.33007 	 85.0263 	 
C 	 55.8432 	 2.15795 	 84.0099 	 
H 	 55.6502 	 1.17976 	 83.4885 	 
H 	 55.1486 	 2.20523 	 84.8538 	 
C 	 55.3972 	 3.3858 	 83.2327 	 
H 	 55.5871 	 4.28421 	 83.7501 	 
H 	 55.9082 	 3.3546 	 82.3199 	 
H 	 54.3688 	 3.51333 	 83.0523 	 
S 	 57.7817 	 -1.22785 	 89.5309 	 
C 	 56.4638 	 -2.25133 	 90.0307 	 
C 	 55.9297 	 -2.91402 	 88.9364 	 
C 	 56.4797 	 -2.47233 	 87.7292 	 
C 	 57.3184 	 -1.41091 	 87.8687 	 
H 	 55.1938 	 -3.7098 	 88.9815 	 
C 	 56.1344 	 -3.13248 	 86.4249 	 
H 	 56.1481 	 -4.21628 	 86.5903 	 
H 	 57.0073 	 -2.96785 	 85.8116 	 
C 	 54.7677 	 -2.71438 	 85.825 	 
H 	 54.8404 	 -1.61104 	 85.5825 	 
H 	 53.9784 	 -2.83494 	 86.5888 	 
C 	 54.3313 	 -3.63165 	 84.7111 	 
H 	 53.3154 	 -3.36948 	 84.3367 	 
H 	 54.2804 	 -4.69882 	 84.9992 	 
H 	 55.0747 	 -3.55558 	 83.9393 	 
H 	 59.874 	 1.4236 	 84.6096 	 
H 	 56.3345 	 -2.46636 	 91.0987 	 
