34

S 	 42.2521 	 12.4876 	 89.2035 	 
C 	 42.7579 	 10.9332 	 89.6049 	 
C 	 41.7182 	 9.98075 	 89.5532 	 
C 	 40.4883 	 10.6118 	 89.3301 	 
C 	 40.5673 	 11.9965 	 89.3805 	 
H 	 39.5423 	 10.1687 	 89.2905 	 
C 	 41.9435 	 8.48408 	 89.663 	 
H 	 42.7223 	 8.16802 	 88.9735 	 
H 	 41.0654 	 8.05029 	 89.2071 	 
C 	 42.0504 	 7.77179 	 91.0088 	 
H 	 41.0432 	 7.82722 	 91.5153 	 
H 	 42.2748 	 6.76677 	 90.9364 	 
C 	 43.1387 	 8.35332 	 91.8561 	 
H 	 42.8873 	 9.38266 	 91.8454 	 
H 	 43.0411 	 7.88345 	 92.8312 	 
H 	 44.1439 	 8.06989 	 91.4996 	 
S 	 39.753 	 14.4491 	 88.551 	 
C 	 38.1558 	 14.9507 	 89.0289 	 
C 	 37.4308 	 13.9702 	 89.7625 	 
C 	 38.1753 	 12.7539 	 89.965 	 
C 	 39.4417 	 12.887 	 89.2622 	 
H 	 36.4417 	 14.1442 	 90.1384 	 
C 	 37.6328 	 11.6901 	 90.8515 	 
H 	 38.3104 	 10.9111 	 90.6432 	 
H 	 36.7119 	 11.28 	 90.4352 	 
C 	 37.4272 	 11.9765 	 92.3675 	 
H 	 36.3866 	 12.4047 	 92.4747 	 
H 	 38.1264 	 12.7123 	 92.6662 	 
C 	 37.5295 	 10.6967 	 93.2035 	 
H 	 37.2402 	 10.9418 	 94.2755 	 
H 	 38.5207 	 10.3625 	 93.2415 	 
H 	 36.9806 	 9.86384 	 92.7343 	 
H 	 43.8382 	 10.6446 	 89.5739 	 
H 	 37.7584 	 15.8988 	 88.8429 	 
