34

S 	 -10.1744 	 -11.9116 	 88.1425 	 
C 	 -10.5812 	 -11.5758 	 86.4534 	 
C 	 -10.6104 	 -10.2073 	 86.1522 	 
C 	 -10.3187 	 -9.43039 	 87.3296 	 
C 	 -10.0446 	 -10.1811 	 88.4562 	 
H 	 -10.3721 	 -8.37797 	 87.3952 	 
C 	 -11.0064 	 -9.68271 	 84.8774 	 
H 	 -10.8874 	 -10.4481 	 84.1279 	 
H 	 -10.4975 	 -8.77362 	 84.6033 	 
C 	 -12.4709 	 -9.14369 	 84.9112 	 
H 	 -12.9922 	 -9.9735 	 85.1837 	 
H 	 -12.4951 	 -8.39926 	 85.7535 	 
C 	 -13.0942 	 -8.63411 	 83.576 	 
H 	 -14.1577 	 -8.25173 	 83.7739 	 
H 	 -12.5979 	 -7.80751 	 83.0574 	 
H 	 -13.3062 	 -9.34055 	 82.8114 	 
S 	 -10.6311 	 -8.1795 	 90.2028 	 
C 	 -9.85665 	 -8.17739 	 91.7419 	 
C 	 -8.93335 	 -9.20735 	 91.877 	 
C 	 -8.85356 	 -10.0161 	 90.7426 	 
C 	 -9.7721 	 -9.6605 	 89.7486 	 
H 	 -8.33515 	 -9.30654 	 92.8224 	 
C 	 -7.69648 	 -11.1202 	 90.5256 	 
H 	 -8.1165 	 -12.0622 	 90.2827 	 
H 	 -7.17744 	 -11.3696 	 91.4196 	 
C 	 -6.70297 	 -10.804 	 89.3137 	 
H 	 -7.24254 	 -10.917 	 88.4181 	 
H 	 -5.9016 	 -11.5134 	 89.2818 	 
C 	 -6.02357 	 -9.42734 	 89.286 	 
H 	 -5.4846 	 -9.35712 	 90.1622 	 
H 	 -6.70179 	 -8.659 	 89.3814 	 
H 	 -5.31605 	 -9.22418 	 88.4773 	 
H 	 -10.7192 	 -12.4117 	 85.6972 	 
H 	 -10.0982 	 -7.54308 	 92.5428 	 
