34

S 	 -3.68154 	 35.4988 	 50.4729 	 
C 	 -2.07091 	 34.797 	 50.6443 	 
C 	 -2.10171 	 33.445 	 50.2471 	 
C 	 -3.4318 	 33.0846 	 49.8957 	 
C 	 -4.40182 	 34.0637 	 49.6995 	 
H 	 -3.69835 	 32.1091 	 49.5216 	 
C 	 -1.02849 	 32.4578 	 50.4264 	 
H 	 -0.547359 	 32.4296 	 49.5045 	 
H 	 -1.51918 	 31.4701 	 50.5985 	 
C 	 0.0198754 	 32.6217 	 51.5835 	 
H 	 0.406789 	 33.6656 	 51.5887 	 
H 	 -0.489033 	 32.6883 	 52.5033 	 
C 	 1.21848 	 31.7255 	 51.5875 	 
H 	 2.03279 	 32.2498 	 52.0101 	 
H 	 1.04305 	 30.8345 	 52.1878 	 
H 	 1.52691 	 31.4684 	 50.5639 	 
S 	 -7.05411 	 34.1596 	 50.3621 	 
C 	 -8.27237 	 33.8752 	 49.1008 	 
C 	 -7.62207 	 33.5564 	 47.9078 	 
C 	 -6.18115 	 33.5672 	 47.9766 	 
C 	 -5.72642 	 33.9382 	 49.1973 	 
H 	 -8.2235 	 33.3062 	 47.0691 	 
C 	 -5.33486 	 33.2311 	 46.7471 	 
H 	 -5.56443 	 32.2172 	 46.5097 	 
H 	 -4.29758 	 33.3214 	 47.0094 	 
C 	 -5.56887 	 34.22 	 45.6213 	 
H 	 -6.61659 	 34.0019 	 45.2827 	 
H 	 -4.99069 	 33.965 	 44.709 	 
C 	 -5.39273 	 35.644 	 46.0698 	 
H 	 -4.57816 	 35.7242 	 46.7912 	 
H 	 -6.33786 	 35.9615 	 46.6253 	 
H 	 -5.26719 	 36.2607 	 45.1722 	 
H 	 -1.11804 	 35.3166 	 50.8571 	 
H 	 -9.31479 	 33.7913 	 49.244 	 
