34

S 	 1.07192 	 36.4288 	 37.331 	 
C 	 2.35218 	 35.3289 	 36.9331 	 
C 	 1.85415 	 34.1112 	 36.3064 	 
C 	 0.471362 	 34.2628 	 36.1245 	 
C 	 -0.146794 	 35.3746 	 36.6578 	 
H 	 -0.0798682 	 33.6506 	 35.4255 	 
C 	 2.5735 	 32.9415 	 35.673 	 
H 	 3.46189 	 32.711 	 36.1397 	 
H 	 2.92677 	 33.3083 	 34.7154 	 
C 	 1.76819 	 31.6247 	 35.6523 	 
H 	 1.63086 	 31.1822 	 36.6513 	 
H 	 0.685575 	 31.7095 	 35.2901 	 
C 	 2.48127 	 30.4288 	 34.9206 	 
H 	 1.871 	 29.5108 	 34.8454 	 
H 	 2.8439 	 30.7043 	 33.9232 	 
H 	 3.30762 	 30.0958 	 35.5236 	 
S 	 -1.82975 	 37.2024 	 35.4218 	 
C 	 -3.35334 	 37.2717 	 36.0968 	 
C 	 -3.73785 	 36.1124 	 36.5656 	 
C 	 -2.65139 	 35.247 	 36.8384 	 
C 	 -1.49456 	 35.8436 	 36.4622 	 
H 	 -4.77196 	 36.0076 	 36.7887 	 
C 	 -2.95382 	 33.9463 	 37.5752 	 
H 	 -3.67677 	 34.1218 	 38.3324 	 
H 	 -2.07573 	 33.6049 	 38.1339 	 
C 	 -3.29736 	 32.7608 	 36.6626 	 
H 	 -2.386 	 32.3317 	 36.2038 	 
H 	 -3.99159 	 32.9779 	 35.8352 	 
C 	 -3.89565 	 31.5419 	 37.341 	 
H 	 -3.16683 	 31.1121 	 38.0501 	 
H 	 -4.32731 	 30.8681 	 36.5377 	 
H 	 -4.77988 	 31.8095 	 37.9449 	 
H 	 3.4078 	 35.3558 	 37.3013 	 
H 	 -4.12896 	 38.0352 	 35.8057 	 
