34

S 	 9.91343 	 -15.6052 	 89.9561 	 
C 	 10.4958 	 -15.7229 	 88.3451 	 
C 	 9.48905 	 -15.7452 	 87.4147 	 
C 	 8.25039 	 -15.4171 	 88.0384 	 
C 	 8.35667 	 -15.2861 	 89.4252 	 
H 	 7.26977 	 -15.1987 	 87.6528 	 
C 	 9.53286 	 -16.0158 	 85.9255 	 
H 	 8.51808 	 -16.1251 	 85.6828 	 
H 	 10.0554 	 -16.9868 	 85.785 	 
C 	 10.19 	 -14.9452 	 85.142 	 
H 	 9.62776 	 -14.0308 	 85.213 	 
H 	 11.2029 	 -14.7011 	 85.2163 	 
C 	 9.94338 	 -15.3737 	 83.6872 	 
H 	 10.3137 	 -16.4014 	 83.4784 	 
H 	 8.86641 	 -15.2688 	 83.4448 	 
H 	 10.4464 	 -14.6914 	 82.9932 	 
S 	 6.97341 	 -16.0077 	 91.7304 	 
C 	 5.80133 	 -14.8857 	 92.4657 	 
C 	 5.73463 	 -13.7211 	 91.7252 	 
C 	 6.55835 	 -13.7162 	 90.4959 	 
C 	 7.33416 	 -14.8844 	 90.3756 	 
H 	 5.14718 	 -12.8514 	 92.1118 	 
C 	 6.6384 	 -12.5181 	 89.5307 	 
H 	 5.69588 	 -11.9855 	 89.8502 	 
H 	 6.35917 	 -12.7776 	 88.4881 	 
C 	 7.81988 	 -11.5477 	 89.5648 	 
H 	 8.71124 	 -12.1252 	 89.433 	 
H 	 7.93207 	 -11.1346 	 90.6223 	 
C 	 7.79282 	 -10.3237 	 88.53 	 
H 	 6.86384 	 -9.76051 	 88.573 	 
H 	 7.94688 	 -10.7338 	 87.543 	 
H 	 8.59329 	 -9.75157 	 88.8984 	 
H 	 11.5508 	 -15.8465 	 88.089 	 
H 	 5.27181 	 -15.0691 	 93.3358 	 
