34

S 	 -45.9141 	 39.1207 	 85.5147 	 
C 	 -47.4705 	 38.3496 	 85.6723 	 
C 	 -48.1513 	 38.4129 	 84.5053 	 
C 	 -47.5586 	 39.2095 	 83.5393 	 
C 	 -46.3904 	 39.7741 	 83.9739 	 
H 	 -47.9117 	 39.3177 	 82.5677 	 
C 	 -49.4572 	 37.7385 	 84.1354 	 
H 	 -48.9851 	 36.7729 	 83.9627 	 
H 	 -49.8661 	 38.1133 	 83.215 	 
C 	 -50.5671 	 37.8175 	 85.2096 	 
H 	 -51.3466 	 37.0685 	 85.0792 	 
H 	 -50.0881 	 37.6755 	 86.1206 	 
C 	 -51.2123 	 39.2 	 85.1666 	 
H 	 -52.0002 	 39.3195 	 84.4064 	 
H 	 -51.9236 	 39.3411 	 85.9925 	 
H 	 -50.381 	 39.9742 	 85.1547 	 
S 	 -43.9268 	 40.9487 	 83.7008 	 
C 	 -43.6147 	 42.0665 	 82.4129 	 
C 	 -44.7656 	 42.4067 	 81.7959 	 
C 	 -45.9189 	 41.7399 	 82.3239 	 
C 	 -45.5996 	 40.7975 	 83.3066 	 
H 	 -44.7043 	 43.1284 	 81.0219 	 
C 	 -47.3295 	 42.0915 	 81.8841 	 
H 	 -47.7273 	 41.1721 	 81.5575 	 
H 	 -47.1666 	 42.7932 	 81.0304 	 
C 	 -48.3571 	 42.5742 	 83.01 	 
H 	 -48.4102 	 41.8095 	 83.8203 	 
H 	 -49.3375 	 42.5918 	 82.5714 	 
C 	 -47.9526 	 43.9208 	 83.535 	 
H 	 -48.6206 	 44.2938 	 84.3106 	 
H 	 -47.9851 	 44.764 	 82.7881 	 
H 	 -46.9847 	 43.9533 	 83.9965 	 
H 	 -47.8241 	 37.7832 	 86.4742 	 
H 	 -42.6273 	 42.4109 	 82.1957 	 
