34

S 	 -12.2559 	 -5.6786 	 80.1959 	 
C 	 -13.1877 	 -7.00101 	 80.8591 	 
C 	 -13.2145 	 -7.05647 	 82.2546 	 
C 	 -12.1301 	 -6.18298 	 82.7024 	 
C 	 -11.5449 	 -5.41599 	 81.7173 	 
H 	 -11.7288 	 -6.03866 	 83.6991 	 
C 	 -14.0001 	 -7.96513 	 83.168 	 
H 	 -14.2084 	 -8.82298 	 82.4854 	 
H 	 -14.9394 	 -7.46642 	 83.3725 	 
C 	 -13.347 	 -8.5591 	 84.4171 	 
H 	 -12.3767 	 -8.96839 	 84.1964 	 
H 	 -13.081 	 -7.80313 	 85.1476 	 
C 	 -14.1326 	 -9.64496 	 85.1945 	 
H 	 -13.7707 	 -9.9196 	 86.205 	 
H 	 -15.203 	 -9.31694 	 85.2641 	 
H 	 -14.049 	 -10.5455 	 84.5543 	 
S 	 -11.4575 	 -2.67705 	 81.6958 	 
C 	 -9.93801 	 -1.93989 	 82.1501 	 
C 	 -8.99314 	 -2.82929 	 82.6516 	 
C 	 -9.52344 	 -4.13949 	 82.6904 	 
C 	 -10.7301 	 -4.23671 	 82.027 	 
H 	 -8.0855 	 -2.38977 	 83.0343 	 
C 	 -8.69094 	 -5.28014 	 83.2715 	 
H 	 -9.01227 	 -5.48954 	 84.2935 	 
H 	 -7.68451 	 -4.93206 	 83.3762 	 
C 	 -8.57796 	 -6.6442 	 82.5056 	 
H 	 -9.48234 	 -7.23189 	 82.6623 	 
H 	 -7.86487 	 -7.25029 	 83.0581 	 
C 	 -8.08508 	 -6.55721 	 81.0574 	 
H 	 -7.92036 	 -7.56464 	 80.5873 	 
H 	 -7.1159 	 -6.0431 	 80.9728 	 
H 	 -8.65907 	 -5.91483 	 80.3462 	 
H 	 -13.9287 	 -7.61235 	 80.3261 	 
H 	 -9.74301 	 -0.905985 	 82.2599 	 
