34

S 	 -39.6001 	 57.9685 	 109.316 	 
C 	 -41.1886 	 57.7051 	 110.127 	 
C 	 -41.6671 	 56.435 	 109.769 	 
C 	 -40.9064 	 55.7991 	 108.762 	 
C 	 -39.7741 	 56.4957 	 108.392 	 
H 	 -41.2385 	 54.8907 	 108.274 	 
C 	 -42.953 	 55.8593 	 110.251 	 
H 	 -43.024 	 56.1173 	 111.304 	 
H 	 -42.9238 	 54.7858 	 110.179 	 
C 	 -44.1456 	 56.3629 	 109.516 	 
H 	 -43.9205 	 56.3503 	 108.464 	 
H 	 -44.9732 	 55.6864 	 109.587 	 
C 	 -44.445 	 57.8461 	 109.936 	 
H 	 -44.3347 	 58.1448 	 110.958 	 
H 	 -43.9954 	 58.5856 	 109.328 	 
H 	 -45.5116 	 58.0635 	 109.761 	 
S 	 -37.8913 	 57.2444 	 106.652 	 
C 	 -37.0851 	 56.162 	 105.601 	 
C 	 -37.3836 	 54.8343 	 105.962 	 
C 	 -38.3449 	 54.7856 	 107.039 	 
C 	 -38.7768 	 56.0405 	 107.448 	 
H 	 -36.7132 	 54.0838 	 105.529 	 
C 	 -38.8966 	 53.5247 	 107.533 	 
H 	 -39.1547 	 53.6354 	 108.616 	 
H 	 -38.1673 	 52.7583 	 107.506 	 
C 	 -40.0666 	 52.9645 	 106.655 	 
H 	 -39.702 	 52.8595 	 105.659 	 
H 	 -40.8862 	 53.6732 	 106.498 	 
C 	 -40.4775 	 51.6189 	 107.266 	 
H 	 -40.667 	 51.7326 	 108.328 	 
H 	 -39.6963 	 50.9124 	 107.124 	 
H 	 -41.3397 	 51.2683 	 106.748 	 
H 	 -41.6213 	 58.2766 	 110.976 	 
H 	 -36.386 	 56.4778 	 104.838 	 
