34

S 	 -27.6666 	 69.1002 	 107.402 	 
C 	 -28.7696 	 69.0335 	 106.08 	 
C 	 -30.0615 	 68.943 	 106.472 	 
C 	 -30.2068 	 69.1987 	 107.838 	 
C 	 -28.9856 	 69.3362 	 108.494 	 
H 	 -31.2074 	 69.2155 	 108.354 	 
C 	 -31.1907 	 68.6455 	 105.539 	 
H 	 -30.7926 	 67.8328 	 104.971 	 
H 	 -31.3783 	 69.5412 	 104.929 	 
C 	 -32.4586 	 68.1039 	 106.097 	 
H 	 -32.2719 	 67.1368 	 106.638 	 
H 	 -32.8398 	 68.7933 	 106.844 	 
C 	 -33.6532 	 67.7413 	 105.041 	 
H 	 -34.1393 	 68.5884 	 104.452 	 
H 	 -33.2972 	 67.0925 	 104.342 	 
H 	 -34.4535 	 67.1581 	 105.503 	 
S 	 -27.7245 	 68.1804 	 110.816 	 
C 	 -28.1568 	 68.7307 	 112.425 	 
C 	 -28.8046 	 69.9307 	 112.253 	 
C 	 -29.3517 	 70.1642 	 110.954 	 
C 	 -28.7791 	 69.3736 	 109.951 	 
H 	 -28.9808 	 70.4772 	 113.167 	 
C 	 -30.3423 	 71.2395 	 110.626 	 
H 	 -30.8265 	 71.4194 	 111.606 	 
H 	 -31.139 	 70.7826 	 109.967 	 
C 	 -29.7957 	 72.5855 	 110.128 	 
H 	 -29.2972 	 72.4275 	 109.222 	 
H 	 -29.0323 	 73.0017 	 110.737 	 
C 	 -30.8712 	 73.66 	 109.975 	 
H 	 -30.5339 	 74.604 	 109.551 	 
H 	 -31.3735 	 73.9935 	 110.918 	 
H 	 -31.6061 	 73.3661 	 109.207 	 
H 	 -28.5399 	 68.7005 	 105.102 	 
H 	 -27.7734 	 68.3782 	 113.388 	 
