34

S 	 42.9284 	 13.3646 	 86.7656 	 
C 	 44.0304 	 13.7223 	 85.4293 	 
C 	 43.3893 	 14.1931 	 84.3074 	 
C 	 41.998 	 14.0883 	 84.4787 	 
C 	 41.6259 	 13.5671 	 85.7109 	 
H 	 41.2533 	 14.2439 	 83.713 	 
C 	 44.0602 	 14.6971 	 83.0747 	 
H 	 45.1511 	 14.6438 	 83.1379 	 
H 	 43.7549 	 15.6999 	 82.8049 	 
C 	 43.8335 	 13.9051 	 81.7695 	 
H 	 43.8899 	 12.8564 	 82.0379 	 
H 	 42.8215 	 13.9421 	 81.358 	 
C 	 44.7325 	 14.2396 	 80.6041 	 
H 	 44.9674 	 15.3298 	 80.5971 	 
H 	 45.5559 	 13.5453 	 80.6391 	 
H 	 44.2568 	 13.8905 	 79.6579 	 
S 	 39.7618 	 14.4884 	 87.5521 	 
C 	 38.1461 	 13.8016 	 87.5285 	 
C 	 38.1096 	 12.6458 	 86.7972 	 
C 	 39.3088 	 12.4627 	 86.0102 	 
C 	 40.2899 	 13.43 	 86.2665 	 
H 	 37.2175 	 12.0273 	 86.8711 	 
C 	 39.447 	 11.2094 	 85.1697 	 
H 	 39.3973 	 10.4494 	 85.8421 	 
H 	 40.4823 	 11.2358 	 84.8421 	 
C 	 38.4802 	 11.1685 	 83.9419 	 
H 	 38.9216 	 11.9151 	 83.2623 	 
H 	 37.4707 	 11.4758 	 84.2806 	 
C 	 38.4839 	 9.83119 	 83.1992 	 
H 	 39.436 	 9.30021 	 83.1144 	 
H 	 37.9213 	 9.83119 	 82.2934 	 
H 	 37.7783 	 9.28102 	 83.785 	 
H 	 45.1245 	 13.5065 	 85.5249 	 
H 	 37.3839 	 14.0586 	 88.2737 	 
