34

S 	 11.0293 	 -27.788 	 83.3688 	 
C 	 9.87114 	 -27.5097 	 84.6589 	 
C 	 9.14465 	 -26.3535 	 84.5039 	 
C 	 9.33638 	 -25.7852 	 83.1784 	 
C 	 10.368 	 -26.3853 	 82.4932 	 
H 	 8.67223 	 -25.0643 	 82.6867 	 
C 	 8.10655 	 -25.9082 	 85.5117 	 
H 	 8.18428 	 -24.9 	 85.6722 	 
H 	 8.26835 	 -26.236 	 86.511 	 
C 	 6.62398 	 -26.2501 	 85.2275 	 
H 	 6.34368 	 -25.7565 	 84.305 	 
H 	 6.40031 	 -27.3419 	 85.0419 	 
C 	 5.67396 	 -25.7672 	 86.2875 	 
H 	 6.09375 	 -26.2095 	 87.2299 	 
H 	 5.71965 	 -24.6297 	 86.3407 	 
H 	 4.71382 	 -26.1959 	 86.2293 	 
S 	 11.149 	 -27.3297 	 79.9844 	 
C 	 11.4385 	 -26.1705 	 78.6928 	 
C 	 11.3395 	 -24.8737 	 79.0955 	 
C 	 10.9784 	 -24.8006 	 80.48 	 
C 	 10.8219 	 -26.0413 	 81.1477 	 
H 	 11.5679 	 -24.1826 	 78.3488 	 
C 	 10.827 	 -23.5023 	 81.2217 	 
H 	 11.6345 	 -22.8096 	 80.9369 	 
H 	 10.9265 	 -23.7293 	 82.2806 	 
C 	 9.42622 	 -22.8692 	 81.1424 	 
H 	 9.48647 	 -22.0587 	 81.9261 	 
H 	 8.66622 	 -23.477 	 81.6071 	 
C 	 8.96811 	 -22.2058 	 79.8508 	 
H 	 7.91551 	 -21.9471 	 79.967 	 
H 	 8.9837 	 -22.9131 	 79.0002 	 
H 	 9.54823 	 -21.3447 	 79.7306 	 
H 	 9.93683 	 -28.0453 	 85.5633 	 
H 	 11.6862 	 -26.3565 	 77.637 	 
