34

S 	 28.649 	 8.1014 	 76.196 	 
C 	 29.5329 	 8.72528 	 77.5075 	 
C 	 29.5154 	 7.85443 	 78.6276 	 
C 	 28.7097 	 6.68526 	 78.3815 	 
C 	 28.0483 	 6.75329 	 77.1411 	 
H 	 28.3847 	 5.90087 	 78.9608 	 
C 	 30.286 	 8.04448 	 79.9856 	 
H 	 29.5871 	 7.90991 	 80.8157 	 
H 	 30.4872 	 9.08043 	 80.2125 	 
C 	 31.4978 	 7.11551 	 80.2552 	 
H 	 31.7293 	 6.89528 	 81.2907 	 
H 	 31.212 	 6.19313 	 79.8219 	 
C 	 32.8349 	 7.70473 	 79.6815 	 
H 	 33.0637 	 8.53187 	 80.3231 	 
H 	 33.653 	 6.96472 	 79.7056 	 
H 	 32.6992 	 8.19415 	 78.7334 	 
S 	 27.3244 	 5.6096 	 74.7982 	 
C 	 26.0991 	 4.37346 	 74.7938 	 
C 	 25.6733 	 4.11781 	 76.0536 	 
C 	 26.2737 	 4.89244 	 77.0414 	 
C 	 27.2685 	 5.67823 	 76.5336 	 
H 	 24.9403 	 3.40861 	 76.2246 	 
C 	 25.8748 	 4.73036 	 78.5202 	 
H 	 24.7758 	 4.78098 	 78.6993 	 
H 	 26.243 	 5.73518 	 78.9064 	 
C 	 26.6503 	 3.60103 	 79.3023 	 
H 	 27.6154 	 3.45797 	 78.7311 	 
H 	 26.0104 	 2.75953 	 79.2739 	 
C 	 26.9982 	 3.98672 	 80.6967 	 
H 	 26.229 	 4.48933 	 81.2438 	 
H 	 27.8888 	 4.59558 	 80.8227 	 
H 	 27.1985 	 3.04015 	 81.2732 	 
H 	 30.0656 	 9.65017 	 77.5869 	 
H 	 25.6296 	 3.92137 	 73.9473 	 
