34

S 	 12.5714 	 32.7036 	 62.0369 	 
C 	 14.2787 	 32.3122 	 62.2496 	 
C 	 15.0594 	 33.031 	 61.3633 	 
C 	 14.302 	 34.1054 	 60.7862 	 
C 	 12.9576 	 34.0308 	 60.9443 	 
H 	 14.7506 	 34.9903 	 60.2726 	 
C 	 16.545 	 32.9528 	 61.2761 	 
H 	 16.7565 	 31.8816 	 61.0535 	 
H 	 16.9123 	 33.0923 	 62.2389 	 
C 	 17.297 	 33.7808 	 60.2357 	 
H 	 16.6654 	 33.7049 	 59.34 	 
H 	 17.3769 	 34.8003 	 60.5444 	 
C 	 18.5947 	 33.1745 	 59.8168 	 
H 	 19.4426 	 33.4191 	 60.4646 	 
H 	 18.504 	 32.0936 	 59.591 	 
H 	 18.8893 	 33.6678 	 58.9473 	 
S 	 10.8192 	 35.6452 	 61.506 	 
C 	 10.1089 	 36.4659 	 60.1626 	 
C 	 10.7646 	 36.3466 	 58.9403 	 
C 	 11.8605 	 35.4326 	 59.0675 	 
C 	 12.0235 	 34.9798 	 60.3567 	 
H 	 10.4219 	 36.8238 	 58.0751 	 
C 	 12.8326 	 35.1954 	 57.9274 	 
H 	 13.5753 	 34.43 	 58.1904 	 
H 	 13.5186 	 36.0613 	 57.8383 	 
C 	 12.3762 	 34.9237 	 56.473 	 
H 	 13.2672 	 34.9653 	 55.8313 	 
H 	 11.705 	 35.6667 	 56.1771 	 
C 	 11.592 	 33.5446 	 56.455 	 
H 	 12.1407 	 32.6405 	 56.4108 	 
H 	 11.0806 	 33.6412 	 55.4535 	 
H 	 10.9309 	 33.6403 	 57.2901 	 
H 	 14.7719 	 31.7191 	 62.9304 	 
H 	 9.22272 	 37.1002 	 60.3606 	 
