34

S 	 17.6904 	 -8.34837 	 81.7269 	 
C 	 16.1561 	 -7.50801 	 81.9523 	 
C 	 15.4762 	 -7.24993 	 80.7889 	 
C 	 16.2228 	 -7.61087 	 79.6416 	 
C 	 17.4591 	 -8.14692 	 79.923 	 
H 	 15.7732 	 -7.48412 	 78.6849 	 
C 	 14.2298 	 -6.42784 	 80.6187 	 
H 	 13.9558 	 -6.11672 	 79.6601 	 
H 	 14.3984 	 -5.46999 	 81.1301 	 
C 	 12.9711 	 -6.92219 	 81.3263 	 
H 	 12.6856 	 -7.73591 	 80.6289 	 
H 	 13.1325 	 -7.37999 	 82.2505 	 
C 	 11.8966 	 -5.81845 	 81.3197 	 
H 	 10.905 	 -6.29604 	 81.4045 	 
H 	 12.1326 	 -5.13811 	 82.1817 	 
H 	 11.9501 	 -5.20684 	 80.4013 	 
S 	 18.5442 	 -10.5149 	 79.1148 	 
C 	 19.6364 	 -10.5523 	 77.7223 	 
C 	 19.8329 	 -9.26763 	 77.2327 	 
C 	 18.9543 	 -8.27423 	 77.776 	 
C 	 18.3723 	 -8.77104 	 78.9684 	 
H 	 20.3083 	 -9.18267 	 76.3095 	 
C 	 18.7392 	 -6.88199 	 77.1259 	 
H 	 17.6989 	 -6.86786 	 76.8351 	 
H 	 19.2755 	 -6.73575 	 76.1839 	 
C 	 18.9135 	 -5.65999 	 78.0951 	 
H 	 19.8798 	 -5.45106 	 78.3838 	 
H 	 18.402 	 -5.68898 	 79.0363 	 
C 	 18.489 	 -4.3852 	 77.278 	 
H 	 17.4573 	 -4.58845 	 77.1018 	 
H 	 18.917 	 -4.52234 	 76.3192 	 
H 	 18.7359 	 -3.39316 	 77.77 	 
H 	 15.7198 	 -7.33662 	 82.9645 	 
H 	 19.8989 	 -11.5433 	 77.1553 	 
