34

S 	 34.7186 	 22.4324 	 81.4273 	 
C 	 33.6027 	 23.7308 	 81.9816 	 
C 	 34.3138 	 24.7821 	 82.5108 	 
C 	 35.7368 	 24.5133 	 82.5272 	 
C 	 36.072 	 23.2177 	 82.1546 	 
H 	 36.5352 	 25.1255 	 82.852 	 
C 	 33.7441 	 26.1171 	 83.0283 	 
H 	 32.7851 	 26.307 	 82.6192 	 
H 	 34.2499 	 26.9529 	 82.542 	 
C 	 33.7834 	 26.2039 	 84.6148 	 
H 	 33.0642 	 25.5051 	 85.0116 	 
H 	 34.8168 	 25.878 	 84.8759 	 
C 	 33.582 	 27.6831 	 85.0293 	 
H 	 33.9625 	 27.8436 	 86.0376 	 
H 	 34.2291 	 28.2301 	 84.3525 	 
H 	 32.5454 	 28.1079 	 84.9058 	 
S 	 37.4331 	 20.9146 	 81.986 	 
C 	 39.0826 	 20.8751 	 82.3029 	 
C 	 39.6798 	 22.0933 	 82.1325 	 
C 	 38.7268 	 23.1596 	 82.0975 	 
C 	 37.4245 	 22.657 	 82.0933 	 
H 	 40.811 	 22.0451 	 82.1257 	 
C 	 39.1348 	 24.6455 	 82.0984 	 
H 	 38.4403 	 25.206 	 81.5218 	 
H 	 40.1107 	 24.6432 	 81.4785 	 
C 	 39.4296 	 25.445 	 83.4198 	 
H 	 38.4539 	 25.451 	 83.9008 	 
H 	 39.6497 	 26.5207 	 83.1881 	 
C 	 40.3983 	 24.877 	 84.4947 	 
H 	 41.3945 	 24.966 	 84.1068 	 
H 	 40.2795 	 23.7589 	 84.7461 	 
H 	 40.3867 	 25.4181 	 85.4533 	 
H 	 32.5819 	 23.6911 	 81.8003 	 
H 	 39.6332 	 19.9317 	 82.4086 	 
