34

S 	 -36.042 	 55.765 	 115.296 	 
C 	 -37.225 	 56.9288 	 115.549 	 
C 	 -38.491 	 56.4149 	 115.712 	 
C 	 -38.4852 	 54.9651 	 115.561 	 
C 	 -37.1989 	 54.4718 	 115.259 	 
H 	 -39.3883 	 54.3636 	 115.73 	 
C 	 -39.7616 	 57.2421 	 116.085 	 
H 	 -39.5362 	 58.2517 	 116.422 	 
H 	 -40.3002 	 56.8507 	 116.975 	 
C 	 -40.6479 	 57.3743 	 114.857 	 
H 	 -40.9665 	 56.3447 	 114.606 	 
H 	 -41.5666 	 57.9071 	 115.022 	 
C 	 -39.9614 	 57.8467 	 113.58 	 
H 	 -39.3971 	 58.7612 	 113.698 	 
H 	 -39.3118 	 57.1047 	 113.14 	 
H 	 -40.7769 	 58.045 	 112.823 	 
S 	 -35.2628 	 52.5765 	 115.811 	 
C 	 -35.5913 	 50.9045 	 115.381 	 
C 	 -36.7831 	 50.7206 	 114.795 	 
C 	 -37.5327 	 51.9489 	 114.636 	 
C 	 -36.8231 	 53.0632 	 115.121 	 
H 	 -37.0267 	 49.7693 	 114.371 	 
C 	 -38.8405 	 51.8963 	 114.033 	 
H 	 -38.722 	 51.5652 	 113.015 	 
H 	 -39.0436 	 53.002 	 113.864 	 
C 	 -40.0558 	 51.233 	 114.73 	 
H 	 -40.2122 	 51.6928 	 115.741 	 
H 	 -39.8924 	 50.1358 	 114.942 	 
C 	 -41.3123 	 51.2564 	 113.877 	 
H 	 -41.169 	 50.5347 	 113.084 	 
H 	 -41.494 	 52.2312 	 113.414 	 
H 	 -42.2391 	 50.9597 	 114.316 	 
H 	 -37.0567 	 57.961 	 115.726 	 
H 	 -34.7975 	 50.1331 	 115.516 	 
