34

S 	 -36.8111 	 71.3392 	 167.621 	 
C 	 -35.9944 	 71.9796 	 166.247 	 
C 	 -35.7414 	 73.336 	 166.356 	 
C 	 -36.2409 	 73.8607 	 167.588 	 
C 	 -36.8436 	 72.9418 	 168.441 	 
H 	 -36.1673 	 74.8983 	 167.93 	 
C 	 -35.0413 	 74.1717 	 165.283 	 
H 	 -35.0011 	 73.6693 	 164.341 	 
H 	 -33.9985 	 74.1885 	 165.564 	 
C 	 -35.5509 	 75.5119 	 165 	 
H 	 -36.6483 	 75.4452 	 165.202 	 
H 	 -35.2286 	 76.2541 	 165.714 	 
C 	 -35.2515 	 76.037 	 163.569 	 
H 	 -35.9514 	 76.864 	 163.244 	 
H 	 -34.2185 	 76.4221 	 163.643 	 
H 	 -35.2892 	 75.2471 	 162.735 	 
S 	 -36.5299 	 72.0395 	 171.056 	 
C 	 -37.3348 	 72.8877 	 172.353 	 
C 	 -38.3527 	 73.6729 	 171.829 	 
C 	 -38.2295 	 73.898 	 170.392 	 
C 	 -37.2612 	 73.0341 	 169.841 	 
H 	 -39.1503 	 74.1827 	 172.464 	 
C 	 -39.1703 	 74.7982 	 169.618 	 
H 	 -38.6653 	 75.1503 	 168.713 	 
H 	 -39.2377 	 75.6452 	 170.333 	 
C 	 -40.607 	 74.2534 	 169.419 	 
H 	 -41.3472 	 75.0887 	 169.319 	 
H 	 -40.9604 	 73.8389 	 170.424 	 
C 	 -40.6935 	 73.159 	 168.338 	 
H 	 -40.0027 	 72.3101 	 168.538 	 
H 	 -40.3654 	 73.5632 	 167.379 	 
H 	 -41.6611 	 72.7456 	 168.305 	 
H 	 -35.8155 	 71.2952 	 165.487 	 
H 	 -37.2387 	 72.6637 	 173.436 	 
