34

S 	 -14.6711 	 67.4305 	 54.2673 	 
C 	 -14.6335 	 65.6906 	 54.6099 	 
C 	 -13.3769 	 65.1757 	 54.2966 	 
C 	 -12.4852 	 66.1912 	 53.8158 	 
C 	 -13.0475 	 67.3897 	 53.6526 	 
H 	 -11.4453 	 66.0291 	 53.4306 	 
C 	 -12.9699 	 63.6684 	 54.3501 	 
H 	 -12.3243 	 63.4557 	 53.4773 	 
H 	 -13.8557 	 62.999 	 54.1442 	 
C 	 -12.3227 	 63.1332 	 55.6627 	 
H 	 -11.5124 	 63.734 	 56.0158 	 
H 	 -13.1169 	 63.0589 	 56.339 	 
C 	 -11.5578 	 61.8198 	 55.3296 	 
H 	 -10.7905 	 62.053 	 54.5715 	 
H 	 -11.013 	 61.6435 	 56.1822 	 
H 	 -12.0829 	 60.946 	 55.0641 	 
S 	 -13.3607 	 69.7583 	 52.2524 	 
C 	 -12.0112 	 70.7942 	 51.8601 	 
C 	 -10.8395 	 70.0944 	 52.13 	 
C 	 -11.0414 	 68.8715 	 52.8851 	 
C 	 -12.3816 	 68.5629 	 53.1107 	 
H 	 -9.98408 	 70.6581 	 51.9539 	 
C 	 -9.82418 	 68.2568 	 53.4405 	 
H 	 -8.97676 	 68.9252 	 53.1259 	 
H 	 -9.70226 	 67.3065 	 52.8836 	 
C 	 -9.8598 	 68.0431 	 54.9885 	 
H 	 -10.4124 	 67.1668 	 55.2229 	 
H 	 -10.379 	 68.8037 	 55.5746 	 
C 	 -8.48161 	 67.6654 	 55.6461 	 
H 	 -7.83774 	 66.851 	 55.1255 	 
H 	 -8.73686 	 67.2365 	 56.6018 	 
H 	 -7.87098 	 68.5369 	 55.8266 	 
H 	 -15.4568 	 65.1017 	 55.0835 	 
H 	 -12.0479 	 71.6651 	 51.2354 	 
