34

S 	 50.7947 	 13.226 	 83.0072 	 
C 	 49.9998 	 13.0717 	 84.5457 	 
C 	 48.7065 	 13.5281 	 84.5796 	 
C 	 48.3735 	 14.0661 	 83.3042 	 
C 	 49.3667 	 14.051 	 82.3782 	 
H 	 47.3846 	 14.4461 	 83.0149 	 
C 	 47.6477 	 13.2962 	 85.7806 	 
H 	 48.0484 	 14.161 	 86.4322 	 
H 	 47.729 	 12.392 	 86.3355 	 
C 	 46.181 	 13.587 	 85.5714 	 
H 	 45.736 	 13.8022 	 86.5249 	 
H 	 46.103 	 14.4661 	 84.987 	 
C 	 45.5021 	 12.425 	 84.8389 	 
H 	 44.4292 	 12.4175 	 84.8818 	 
H 	 45.8297 	 12.289 	 83.7722 	 
H 	 45.7721 	 11.4832 	 85.3401 	 
S 	 50.537 	 13.6509 	 79.8985 	 
C 	 49.9599 	 14.6185 	 78.5539 	 
C 	 48.9872 	 15.4737 	 78.9687 	 
C 	 48.5868 	 15.3491 	 80.2958 	 
C 	 49.413 	 14.4748 	 80.9739 	 
H 	 48.6926 	 16.1012 	 78.1345 	 
C 	 47.4509 	 16.0617 	 80.8927 	 
H 	 47.4936 	 17.0118 	 80.3222 	 
H 	 47.6076 	 16.3809 	 81.9244 	 
C 	 46.1003 	 15.3513 	 80.6853 	 
H 	 45.9424 	 14.4322 	 81.2817 	 
H 	 46.025 	 14.9472 	 79.7173 	 
C 	 44.8866 	 16.335 	 80.9939 	 
H 	 43.9264 	 15.873 	 81.3543 	 
H 	 44.6445 	 16.9016 	 80.0971 	 
H 	 45.0488 	 17.0542 	 81.7846 	 
H 	 50.4693 	 12.5585 	 85.3839 	 
H 	 50.258 	 14.5955 	 77.5572 	 
