34

S 	 -53.8455 	 39.0841 	 103.302 	 
C 	 -53.1147 	 40.673 	 103.329 	 
C 	 -52.6721 	 40.9685 	 104.659 	 
C 	 -53.0312 	 39.9227 	 105.594 	 
C 	 -53.6816 	 38.8336 	 105.005 	 
H 	 -52.8432 	 39.9581 	 106.62 	 
C 	 -52.043 	 42.2705 	 105.232 	 
H 	 -52.6411 	 42.8428 	 105.989 	 
H 	 -52.0588 	 43.0937 	 104.544 	 
C 	 -50.5634 	 42.084 	 105.641 	 
H 	 -50.3851 	 41.1879 	 106.267 	 
H 	 -49.9438 	 42.0489 	 104.707 	 
C 	 -49.9042 	 43.2224 	 106.481 	 
H 	 -50.4559 	 43.211 	 107.481 	 
H 	 -48.9097 	 43.0006 	 106.855 	 
H 	 -49.8478 	 44.2082 	 106.05 	 
S 	 -55.7171 	 36.9928 	 105.367 	 
C 	 -55.49 	 35.5444 	 106.292 	 
C 	 -54.1994 	 35.4768 	 106.814 	 
C 	 -53.442 	 36.6742 	 106.478 	 
C 	 -54.0956 	 37.5426 	 105.626 	 
H 	 -53.7656 	 34.572 	 107.139 	 
C 	 -51.9778 	 36.8328 	 106.773 	 
H 	 -51.5478 	 37.7873 	 106.69 	 
H 	 -51.4235 	 36.1315 	 106.094 	 
C 	 -51.6116 	 36.3014 	 108.204 	 
H 	 -50.5048 	 36.4057 	 108.359 	 
H 	 -51.8564 	 35.2444 	 108.148 	 
C 	 -52.4633 	 36.8307 	 109.384 	 
H 	 -53.3966 	 36.3758 	 109.488 	 
H 	 -52.5785 	 37.8948 	 109.247 	 
H 	 -51.94 	 36.7065 	 110.365 	 
H 	 -52.8734 	 41.2768 	 102.455 	 
H 	 -56.1889 	 34.7357 	 106.374 	 
