34

S 	 -106.732 	 39.644 	 129.004 	 
C 	 -106.213 	 40.6075 	 130.339 	 
C 	 -107.269 	 40.816 	 131.165 	 
C 	 -108.526 	 40.2491 	 130.734 	 
C 	 -108.419 	 39.6199 	 129.552 	 
H 	 -109.422 	 40.459 	 131.325 	 
C 	 -107.281 	 41.7083 	 132.387 	 
H 	 -107.964 	 42.5073 	 132.123 	 
H 	 -106.293 	 42.1637 	 132.451 	 
C 	 -107.563 	 40.9424 	 133.759 	 
H 	 -107.516 	 41.7312 	 134.55 	 
H 	 -108.544 	 40.4205 	 133.699 	 
C 	 -106.519 	 39.8866 	 134.042 	 
H 	 -106.476 	 39.1415 	 133.235 	 
H 	 -105.536 	 40.2953 	 134.133 	 
H 	 -106.731 	 39.4206 	 135.014 	 
S 	 -109.969 	 39.6139 	 127.224 	 
C 	 -111.159 	 38.4117 	 126.896 	 
C 	 -111.238 	 37.5507 	 127.912 	 
C 	 -110.166 	 37.6979 	 128.889 	 
C 	 -109.481 	 38.9208 	 128.755 	 
H 	 -111.956 	 36.7105 	 127.841 	 
C 	 -109.864 	 36.7169 	 129.975 	 
H 	 -110.85 	 36.2226 	 130.185 	 
H 	 -109.595 	 37.2603 	 130.92 	 
C 	 -108.676 	 35.8019 	 129.47 	 
H 	 -107.676 	 36.3468 	 129.531 	 
H 	 -108.895 	 35.7147 	 128.417 	 
C 	 -108.502 	 34.4764 	 130.198 	 
H 	 -109.274 	 33.7971 	 130.013 	 
H 	 -108.31 	 34.6075 	 131.209 	 
H 	 -107.547 	 34.0145 	 129.855 	 
H 	 -105.129 	 40.9124 	 130.436 	 
H 	 -111.842 	 38.5797 	 126.085 	 
