34

S 	 23.0806 	 10.3263 	 66.1541 	 
C 	 23.2011 	 12.0117 	 66.4791 	 
C 	 22.2484 	 12.4899 	 67.3998 	 
C 	 21.3649 	 11.4418 	 67.8141 	 
C 	 21.8039 	 10.219 	 67.3192 	 
H 	 20.6872 	 11.6532 	 68.6887 	 
C 	 22.2115 	 13.9002 	 67.9061 	 
H 	 21.4567 	 14.0473 	 68.6884 	 
H 	 22.0072 	 14.6528 	 67.2409 	 
C 	 23.6023 	 14.2276 	 68.5197 	 
H 	 23.7734 	 13.6126 	 69.4134 	 
H 	 24.3751 	 14.0711 	 67.7717 	 
C 	 23.624 	 15.7575 	 68.8284 	 
H 	 22.9895 	 16.0503 	 69.6511 	 
H 	 24.6391 	 16.072 	 69.1303 	 
H 	 23.4062 	 16.4354 	 67.9847 	 
S 	 19.9929 	 8.28641 	 67.0279 	 
C 	 20.0583 	 6.92044 	 68.0921 	 
C 	 20.8857 	 7.09017 	 69.1497 	 
C 	 21.6357 	 8.28966 	 69.0582 	 
C 	 21.2514 	 9.03301 	 67.922 	 
H 	 21.0529 	 6.30945 	 69.8572 	 
C 	 22.7152 	 8.63683 	 70.0854 	 
H 	 23.41 	 9.43574 	 69.6313 	 
H 	 23.3697 	 7.75859 	 70.3057 	 
C 	 22.0477 	 9.19368 	 71.3231 	 
H 	 21.428 	 8.4672 	 71.7554 	 
H 	 21.4366 	 10.0249 	 70.9753 	 
C 	 23.1766 	 9.63088 	 72.2952 	 
H 	 22.7379 	 9.86883 	 73.2446 	 
H 	 23.6304 	 10.4823 	 71.8669 	 
H 	 23.9164 	 8.82295 	 72.4587 	 
H 	 23.8532 	 12.7332 	 66.0718 	 
H 	 19.4256 	 6.04152 	 67.9679 	 
