34

S 	 -1.558 	 -21.3744 	 65.6078 	 
C 	 -0.599503 	 -21.4348 	 64.1297 	 
C 	 -0.85697 	 -20.2964 	 63.387 	 
C 	 -1.62351 	 -19.2803 	 64.1056 	 
C 	 -2.17173 	 -19.7917 	 65.2426 	 
H 	 -1.91442 	 -18.2845 	 63.6837 	 
C 	 -0.252547 	 -20.0594 	 62.0291 	 
H 	 0.847427 	 -20.4159 	 62.1087 	 
H 	 -0.138185 	 -19.0368 	 61.9526 	 
C 	 -0.947122 	 -20.5062 	 60.7568 	 
H 	 -0.308364 	 -20.3184 	 59.906 	 
H 	 -1.03429 	 -21.5856 	 60.8106 	 
C 	 -2.29765 	 -19.7338 	 60.5198 	 
H 	 -2.85168 	 -20.0444 	 61.3678 	 
H 	 -2.20226 	 -18.6035 	 60.4068 	 
H 	 -2.94408 	 -20.0431 	 59.642 	 
S 	 -4.76644 	 -19.8769 	 66.4441 	 
C 	 -5.30698 	 -18.466 	 67.4008 	 
C 	 -4.18929 	 -17.7645 	 67.7807 	 
C 	 -2.96481 	 -18.0246 	 67.0252 	 
C 	 -3.11864 	 -19.15 	 66.1853 	 
H 	 -4.38236 	 -16.943 	 68.4286 	 
C 	 -1.67703 	 -17.3203 	 67.3644 	 
H 	 -1.78453 	 -16.2626 	 67.0084 	 
H 	 -0.94363 	 -17.7782 	 66.6951 	 
C 	 -1.14998 	 -17.3299 	 68.7963 	 
H 	 -1.07478 	 -18.3404 	 69.2781 	 
H 	 -1.86749 	 -16.7435 	 69.396 	 
C 	 0.176997 	 -16.5799 	 68.865 	 
H 	 0.014439 	 -15.5447 	 68.6352 	 
H 	 0.9045 	 -17.0051 	 68.1386 	 
H 	 0.553245 	 -16.4477 	 69.8367 	 
H 	 0.091704 	 -22.1096 	 63.8399 	 
H 	 -6.30531 	 -18.3134 	 67.818 	 
