34

S 	 -108.168 	 53.0976 	 116.158 	 
C 	 -109.566 	 54.0615 	 116.282 	 
C 	 -109.271 	 55.3458 	 115.853 	 
C 	 -107.903 	 55.6417 	 115.703 	 
C 	 -107.123 	 54.5177 	 115.937 	 
H 	 -107.396 	 56.5826 	 115.453 	 
C 	 -110.374 	 56.4082 	 115.63 	 
H 	 -110.001 	 57.2412 	 116.199 	 
H 	 -111.324 	 56.1597 	 116.19 	 
C 	 -110.729 	 56.7435 	 114.121 	 
H 	 -111.168 	 55.8216 	 113.711 	 
H 	 -111.59 	 57.3558 	 113.99 	 
C 	 -109.588 	 57.1539 	 113.225 	 
H 	 -108.778 	 56.41 	 113.196 	 
H 	 -110.03 	 57.4071 	 112.304 	 
H 	 -109.129 	 57.9931 	 113.601 	 
S 	 -104.992 	 53.5715 	 117.267 	 
C 	 -103.358 	 53.7693 	 116.736 	 
C 	 -103.379 	 54.4884 	 115.553 	 
C 	 -104.704 	 54.8322 	 115.032 	 
C 	 -105.672 	 54.426 	 115.95 	 
H 	 -102.384 	 54.7436 	 115.132 	 
C 	 -104.802 	 55.6041 	 113.746 	 
H 	 -104.696 	 56.6712 	 114.056 	 
H 	 -105.921 	 55.6226 	 113.591 	 
C 	 -103.958 	 55.2696 	 112.544 	 
H 	 -102.963 	 54.9871 	 112.935 	 
H 	 -103.732 	 56.2337 	 112.063 	 
C 	 -104.534 	 54.0938 	 111.696 	 
H 	 -105.542 	 54.3483 	 111.448 	 
H 	 -104.598 	 53.1057 	 112.227 	 
H 	 -103.986 	 53.9205 	 110.806 	 
H 	 -110.626 	 53.6965 	 116.311 	 
H 	 -102.456 	 53.5529 	 117.194 	 
