34

S 	 -40.1367 	 29.3077 	 90.3169 	 
C 	 -39.9236 	 27.843 	 91.2963 	 
C 	 -40.3451 	 26.7478 	 90.5901 	 
C 	 -40.7508 	 27.0926 	 89.2769 	 
C 	 -40.6811 	 28.4299 	 88.9554 	 
H 	 -41.1007 	 26.3818 	 88.5331 	 
C 	 -40.0391 	 25.261 	 90.9707 	 
H 	 -38.9633 	 25.1322 	 91.0335 	 
H 	 -40.4106 	 24.6124 	 90.1414 	 
C 	 -40.4787 	 24.6809 	 92.3662 	 
H 	 -40.3024 	 23.5948 	 92.4803 	 
H 	 -39.9588 	 25.0791 	 93.1856 	 
C 	 -41.9947 	 24.9762 	 92.4977 	 
H 	 -42.282 	 25.9453 	 92.8093 	 
H 	 -42.5495 	 24.6312 	 91.5974 	 
H 	 -42.1916 	 24.3864 	 93.4045 	 
S 	 -42.3889 	 30.3447 	 87.9145 	 
C 	 -42.3916 	 30.6711 	 86.2601 	 
C 	 -41.5774 	 29.7686 	 85.5585 	 
C 	 -40.9226 	 28.8137 	 86.4083 	 
C 	 -41.1304 	 29.0785 	 87.7503 	 
H 	 -41.5083 	 29.9124 	 84.5066 	 
C 	 -40.0219 	 27.7482 	 85.9159 	 
H 	 -40.0144 	 27.7829 	 84.8824 	 
H 	 -40.5261 	 26.8302 	 86.199 	 
C 	 -38.5684 	 27.7494 	 86.3215 	 
H 	 -38.1525 	 26.8825 	 85.8068 	 
H 	 -38.3464 	 27.4141 	 87.3649 	 
C 	 -37.8914 	 29.1087 	 86.1077 	 
H 	 -36.7765 	 29.0924 	 86.2683 	 
H 	 -38.2922 	 29.7213 	 86.9021 	 
H 	 -38.2438 	 29.5108 	 85.1221 	 
H 	 -39.4089 	 27.8891 	 92.2296 	 
H 	 -42.9649 	 31.4301 	 85.7012 	 
