34

S 	 -42.1204 	 50.5172 	 103.995 	 
C 	 -42.9174 	 51.7764 	 104.751 	 
C 	 -44.0588 	 51.3041 	 105.423 	 
C 	 -44.3481 	 49.911 	 105.174 	 
C 	 -43.404 	 49.348 	 104.344 	 
H 	 -45.1688 	 49.2577 	 105.462 	 
C 	 -45.0394 	 52.2106 	 106.22 	 
H 	 -46.0378 	 51.8616 	 106.051 	 
H 	 -45.0058 	 53.1558 	 105.662 	 
C 	 -44.9304 	 52.4539 	 107.729 	 
H 	 -43.995 	 52.8423 	 108.048 	 
H 	 -45.6844 	 53.1952 	 108.013 	 
C 	 -45.198 	 51.0486 	 108.488 	 
H 	 -46.2332 	 50.6726 	 108.45 	 
H 	 -44.427 	 50.3207 	 108.223 	 
H 	 -45.1703 	 51.144 	 109.583 	 
S 	 -44.5777 	 47.3465 	 102.927 	 
C 	 -43.7364 	 45.8399 	 102.89 	 
C 	 -42.5121 	 45.8675 	 103.575 	 
C 	 -42.2872 	 47.1053 	 104.221 	 
C 	 -43.3256 	 47.9639 	 104.001 	 
H 	 -41.923 	 45.0108 	 103.483 	 
C 	 -41.0822 	 47.3015 	 105.136 	 
H 	 -41.0256 	 46.404 	 105.655 	 
H 	 -41.3288 	 48.0181 	 105.944 	 
C 	 -39.7491 	 47.7423 	 104.589 	 
H 	 -39.88 	 48.527 	 103.876 	 
H 	 -39.4911 	 46.8952 	 103.929 	 
C 	 -38.6204 	 47.8244 	 105.631 	 
H 	 -38.9322 	 48.3811 	 106.521 	 
H 	 -37.6423 	 48.2747 	 105.292 	 
H 	 -38.4807 	 46.773 	 105.989 	 
H 	 -42.7434 	 52.8128 	 104.794 	 
H 	 -43.9727 	 45.0308 	 102.238 	 
