34

S 	 39.2007 	 12.2243 	 89.7758 	 
C 	 40.458 	 13.4442 	 90.0639 	 
C 	 41.7143 	 13.0005 	 89.7326 	 
C 	 41.6746 	 11.591 	 89.3461 	 
C 	 40.4383 	 10.9985 	 89.3691 	 
H 	 42.5391 	 10.9808 	 89.0927 	 
C 	 42.9471 	 13.8478 	 89.7038 	 
H 	 43.4645 	 13.405 	 90.5542 	 
H 	 42.7408 	 14.88 	 90.0235 	 
C 	 43.6702 	 13.8714 	 88.3572 	 
H 	 44.5753 	 14.4538 	 88.4668 	 
H 	 44.0731 	 12.9314 	 88.0684 	 
C 	 42.8397 	 14.3396 	 87.1022 	 
H 	 43.485 	 14.5434 	 86.1786 	 
H 	 42.1292 	 13.589 	 86.7433 	 
H 	 42.192 	 15.1904 	 87.2937 	 
S 	 38.3479 	 9.26295 	 89.014 	 
C 	 38.7031 	 7.56771 	 88.7748 	 
C 	 40.0488 	 7.24812 	 89.0131 	 
C 	 40.7885 	 8.35253 	 89.4304 	 
C 	 40.0836 	 9.60518 	 89.2574 	 
H 	 40.4609 	 6.27574 	 88.7996 	 
C 	 42.2549 	 8.18361 	 89.7201 	 
H 	 42.3505 	 7.24622 	 90.3088 	 
H 	 42.6178 	 9.03085 	 90.316 	 
C 	 43.0903 	 8.06242 	 88.5054 	 
H 	 43.1807 	 9.04048 	 88.1 	 
H 	 42.5764 	 7.38779 	 87.7772 	 
C 	 44.5357 	 7.55749 	 88.7519 	 
H 	 44.9431 	 7.44856 	 87.7487 	 
H 	 44.5076 	 6.58272 	 89.1511 	 
H 	 45.2914 	 8.1874 	 89.3569 	 
H 	 40.2709 	 14.4858 	 90.1433 	 
H 	 37.9088 	 6.82035 	 88.5891 	 
