34

S 	 30.5838 	 -1.81496 	 74.8171 	 
C 	 30.4817 	 -0.0895999 	 75.0332 	 
C 	 29.5167 	 0.417991 	 74.0983 	 
C 	 29.2053 	 -0.558094 	 73.0949 	 
C 	 29.6038 	 -1.87187 	 73.4034 	 
H 	 28.5683 	 -0.354548 	 72.1922 	 
C 	 28.8299 	 1.80661 	 74.033 	 
H 	 29.1221 	 2.31928 	 73.0923 	 
H 	 29.1965 	 2.32414 	 74.9449 	 
C 	 27.3085 	 1.77677 	 74.0817 	 
H 	 26.7464 	 1.06472 	 73.5336 	 
H 	 26.9965 	 1.508 	 75.0936 	 
C 	 26.69 	 3.16876 	 73.6875 	 
H 	 27.1692 	 4.04454 	 74.154 	 
H 	 26.6951 	 3.28377 	 72.6065 	 
H 	 25.6502 	 3.20742 	 74.0448 	 
S 	 27.8766 	 -3.1839 	 71.9061 	 
C 	 28.401 	 -4.7335 	 71.184 	 
C 	 29.5874 	 -5.26756 	 71.6864 	 
C 	 30.2204 	 -4.20109 	 72.434 	 
C 	 29.4326 	 -3.05385 	 72.5617 	 
H 	 29.808 	 -6.29846 	 71.4815 	 
C 	 31.7166 	 -4.42044 	 72.8108 	 
H 	 32.0627 	 -5.37099 	 72.4491 	 
H 	 31.8019 	 -4.48516 	 73.9208 	 
C 	 32.6485 	 -3.32354 	 72.3315 	 
H 	 32.415 	 -2.38848 	 72.8159 	 
H 	 32.5046 	 -3.24633 	 71.2644 	 
C 	 34.1596 	 -3.51801 	 72.6806 	 
H 	 34.6584 	 -2.80795 	 72.0706 	 
H 	 34.5769 	 -4.50808 	 72.5048 	 
H 	 34.4237 	 -3.39058 	 73.697 	 
H 	 30.8882 	 0.579396 	 75.7173 	 
H 	 27.7164 	 -5.356 	 70.5398 	 
