34

S 	 7.5245 	 -10.9685 	 68.7388 	 
C 	 8.66269 	 -9.72888 	 69.1502 	 
C 	 8.1529 	 -8.46719 	 69.1941 	 
C 	 6.78644 	 -8.49468 	 68.8115 	 
C 	 6.30955 	 -9.74555 	 68.4903 	 
H 	 6.0482 	 -7.73174 	 68.8188 	 
C 	 8.91664 	 -7.2291 	 69.4856 	 
H 	 9.85978 	 -7.40292 	 70.0042 	 
H 	 8.41633 	 -6.74606 	 70.3161 	 
C 	 9.00668 	 -6.21366 	 68.2312 	 
H 	 8.00786 	 -5.81406 	 67.9539 	 
H 	 9.54364 	 -5.30924 	 68.6603 	 
C 	 9.71873 	 -6.83654 	 67.0825 	 
H 	 9.04167 	 -7.64767 	 66.6352 	 
H 	 9.91397 	 -6.0673 	 66.2839 	 
H 	 10.6401 	 -7.36574 	 67.2979 	 
S 	 4.77673 	 -10.582 	 66.4956 	 
C 	 3.09248 	 -10.8375 	 66.792 	 
C 	 2.65637 	 -10.5202 	 68.0826 	 
C 	 3.77982 	 -9.98677 	 68.8217 	 
C 	 4.97479 	 -10.0592 	 68.1027 	 
H 	 1.5902 	 -10.6959 	 68.3667 	 
C 	 3.66572 	 -9.62531 	 70.2818 	 
H 	 2.83281 	 -9.03121 	 70.5076 	 
H 	 4.60826 	 -9.05888 	 70.5908 	 
C 	 3.50457 	 -10.763 	 71.3008 	 
H 	 2.62388 	 -11.2666 	 70.9638 	 
H 	 3.15723 	 -10.4214 	 72.3306 	 
C 	 4.76027 	 -11.6188 	 71.5651 	 
H 	 4.5128 	 -12.3349 	 72.3963 	 
H 	 5.52812 	 -10.8557 	 71.86 	 
H 	 5.06001 	 -12.1728 	 70.7011 	 
H 	 9.67544 	 -9.84945 	 69.3901 	 
H 	 2.46911 	 -11.3335 	 66.1099 	 
