34

S 	 -2.52117 	 -15.1459 	 87.1659 	 
C 	 -1.80853 	 -16.6789 	 87.3376 	 
C 	 -2.21328 	 -17.4504 	 86.249 	 
C 	 -2.82849 	 -16.7217 	 85.1876 	 
C 	 -2.97991 	 -15.3908 	 85.5046 	 
H 	 -3.20425 	 -17.1464 	 84.3362 	 
C 	 -1.93853 	 -18.9144 	 86.0933 	 
H 	 -1.22697 	 -19.2264 	 86.8491 	 
H 	 -1.34945 	 -18.9514 	 85.1727 	 
C 	 -3.18337 	 -19.7928 	 85.9256 	 
H 	 -3.75487 	 -19.8433 	 86.8896 	 
H 	 -3.90041 	 -19.3014 	 85.2546 	 
C 	 -2.96904 	 -21.2547 	 85.6089 	 
H 	 -3.92917 	 -21.8193 	 85.7399 	 
H 	 -2.47743 	 -21.3147 	 84.6597 	 
H 	 -2.27093 	 -21.6778 	 86.3845 	 
S 	 -2.46963 	 -14.0311 	 83.1537 	 
C 	 -3.6661 	 -12.7534 	 82.7092 	 
C 	 -4.82439 	 -12.855 	 83.4376 	 
C 	 -4.74744 	 -13.8458 	 84.4643 	 
C 	 -3.46414 	 -14.3615 	 84.5588 	 
H 	 -5.71047 	 -12.2468 	 83.173 	 
C 	 -5.92189 	 -14.1819 	 85.3709 	 
H 	 -6.74761 	 -13.4561 	 85.2073 	 
H 	 -5.60461 	 -14.1629 	 86.4665 	 
C 	 -6.36593 	 -15.6857 	 85.2351 	 
H 	 -5.57954 	 -16.3338 	 85.5667 	 
H 	 -6.59417 	 -15.945 	 84.2101 	 
C 	 -7.58305 	 -15.9362 	 86.0195 	 
H 	 -7.77721 	 -15.2243 	 86.826 	 
H 	 -7.64234 	 -16.9566 	 86.2917 	 
H 	 -8.40133 	 -15.8493 	 85.2879 	 
H 	 -1.19907 	 -17.0444 	 88.1228 	 
H 	 -3.62905 	 -11.9725 	 81.9647 	 
