34

S 	 -76.1018 	 51.414 	 140.161 	 
C 	 -74.9663 	 50.8124 	 141.247 	 
C 	 -73.8126 	 50.3727 	 140.593 	 
C 	 -73.9162 	 50.4275 	 139.174 	 
C 	 -75.1319 	 50.9948 	 138.724 	 
H 	 -73.1492 	 50.2015 	 138.479 	 
C 	 -72.5123 	 49.8361 	 141.219 	 
H 	 -72.3971 	 50.3505 	 142.145 	 
H 	 -71.5973 	 49.9412 	 140.601 	 
C 	 -72.574 	 48.3313 	 141.406 	 
H 	 -72.6409 	 47.7986 	 140.465 	 
H 	 -71.6957 	 47.9738 	 141.912 	 
C 	 -73.7868 	 47.7386 	 142.236 	 
H 	 -73.5102 	 46.7096 	 142.511 	 
H 	 -73.9555 	 48.2493 	 143.185 	 
H 	 -74.6605 	 47.7224 	 141.618 	 
S 	 -75.4086 	 50.0752 	 136.172 	 
C 	 -75.7366 	 51.1517 	 134.857 	 
C 	 -76.0763 	 52.3749 	 135.395 	 
C 	 -75.8367 	 52.544 	 136.797 	 
C 	 -75.5599 	 51.3283 	 137.41 	 
H 	 -76.3685 	 53.1939 	 134.801 	 
C 	 -75.9021 	 53.8351 	 137.6 	 
H 	 -75.5427 	 54.7802 	 137.135 	 
H 	 -75.1536 	 53.7984 	 138.412 	 
C 	 -77.3456 	 54.1311 	 138.105 	 
H 	 -77.8096 	 53.1469 	 138.136 	 
H 	 -77.8246 	 54.8092 	 137.397 	 
C 	 -77.3244 	 54.8412 	 139.509 	 
H 	 -78.2273 	 55.467 	 139.664 	 
H 	 -76.3312 	 55.3965 	 139.736 	 
H 	 -77.3706 	 54.0034 	 140.207 	 
H 	 -75.0233 	 50.7843 	 142.324 	 
H 	 -75.6817 	 50.9528 	 133.855 	 
