34

S 	 2.26612 	 -9.90597 	 53.7437 	 
C 	 1.82458 	 -10.303 	 52.1034 	 
C 	 1.87012 	 -11.6586 	 51.9247 	 
C 	 2.22873 	 -12.3689 	 53.1363 	 
C 	 2.12029 	 -11.5599 	 54.2255 	 
H 	 2.21908 	 -13.4328 	 53.2145 	 
C 	 1.44533 	 -12.3157 	 50.6459 	 
H 	 2.21674 	 -13.0869 	 50.4222 	 
H 	 1.5635 	 -11.6328 	 49.7963 	 
C 	 0.132219 	 -12.9144 	 50.4535 	 
H 	 0.236775 	 -13.3752 	 49.4722 	 
H 	 -0.0220286 	 -13.603 	 51.2684 	 
C 	 -1.01961 	 -11.9522 	 50.4049 	 
H 	 -1.005 	 -11.26 	 51.2763 	 
H 	 -0.862933 	 -11.2495 	 49.5873 	 
H 	 -1.95116 	 -12.4713 	 50.3379 	 
S 	 3.184 	 -11.0619 	 56.7247 	 
C 	 3.21516 	 -12.2707 	 57.9499 	 
C 	 2.43851 	 -13.3773 	 57.5744 	 
C 	 1.86401 	 -13.2003 	 56.2436 	 
C 	 2.21649 	 -11.9892 	 55.6643 	 
H 	 2.51121 	 -14.2439 	 58.292 	 
C 	 1.0621 	 -14.3426 	 55.5921 	 
H 	 1.55353 	 -14.9761 	 54.815 	 
H 	 0.426987 	 -13.6912 	 54.9942 	 
C 	 0.342657 	 -15.2786 	 56.6136 	 
H 	 -0.201661 	 -14.6547 	 57.2838 	 
H 	 1.11342 	 -15.872 	 57.131 	 
C 	 -0.673625 	 -16.2541 	 55.9536 	 
H 	 -1.69521 	 -15.8729 	 55.8843 	 
H 	 -0.783465 	 -17.1978 	 56.4379 	 
H 	 -0.341509 	 -16.5575 	 54.9605 	 
H 	 1.60929 	 -9.58464 	 51.2679 	 
H 	 3.73801 	 -12.1693 	 58.871 	 
