34

S 	 49.2317 	 4.94981 	 87.6961 	 
C 	 48.4479 	 3.91225 	 86.5066 	 
C 	 48.48 	 2.54843 	 86.8511 	 
C 	 49.2433 	 2.42589 	 88.1033 	 
C 	 49.7463 	 3.56658 	 88.6682 	 
H 	 49.3482 	 1.41815 	 88.5644 	 
C 	 48.0342 	 1.34553 	 86.0301 	 
H 	 46.9122 	 1.38658 	 86.009 	 
H 	 48.2349 	 0.416538 	 86.6176 	 
C 	 48.463 	 1.24142 	 84.5747 	 
H 	 48.4666 	 2.10267 	 83.9119 	 
H 	 49.5498 	 1.06236 	 84.4913 	 
C 	 47.9013 	 0.00438733 	 83.8055 	 
H 	 47.9779 	 -0.95957 	 84.3487 	 
H 	 46.8849 	 0.0875914 	 83.3961 	 
H 	 48.5014 	 -0.121642 	 82.8469 	 
S 	 49.4913 	 4.3666 	 91.3046 	 
C 	 50.701 	 3.77138 	 92.4511 	 
C 	 51.7956 	 3.18897 	 91.8034 	 
C 	 51.5935 	 3.12999 	 90.3619 	 
C 	 50.4027 	 3.65732 	 89.9553 	 
H 	 52.7373 	 2.89268 	 92.2854 	 
C 	 52.6933 	 2.4064 	 89.484 	 
H 	 52.2539 	 1.52634 	 89.0188 	 
H 	 53.4111 	 1.89633 	 90.1044 	 
C 	 53.4197 	 3.22795 	 88.4282 	 
H 	 52.6537 	 3.5574 	 87.7081 	 
H 	 54.1211 	 2.55944 	 87.8656 	 
C 	 54.41 	 4.3347 	 89.013 	 
H 	 53.7719 	 5.00613 	 89.6148 	 
H 	 54.7772 	 4.99066 	 88.3029 	 
H 	 55.1437 	 3.89804 	 89.5762 	 
H 	 47.9916 	 4.31041 	 85.6107 	 
H 	 50.685 	 3.93494 	 93.5249 	 
