34

S 	 12.0097 	 -15.228 	 78.6476 	 
C 	 10.457 	 -15.4771 	 79.3213 	 
C 	 9.47811 	 -14.7193 	 78.7223 	 
C 	 9.96431 	 -14.0357 	 77.5653 	 
C 	 11.3859 	 -14.1725 	 77.459 	 
H 	 9.41223 	 -13.3856 	 76.8642 	 
C 	 8.04354 	 -14.6806 	 79.2361 	 
H 	 7.91465 	 -13.8304 	 79.9636 	 
H 	 7.87975 	 -15.6078 	 79.7649 	 
C 	 7.04228 	 -14.6686 	 78.1437 	 
H 	 7.0504 	 -13.7515 	 77.6576 	 
H 	 7.28672 	 -15.4826 	 77.4123 	 
C 	 5.59054 	 -14.9475 	 78.6564 	 
H 	 5.5098 	 -14.1426 	 79.2865 	 
H 	 4.79781 	 -14.7883 	 77.9087 	 
H 	 5.50084 	 -15.9821 	 79.1004 	 
S 	 13.4447 	 -12.5903 	 77.0682 	 
C 	 14.1858 	 -12.4006 	 75.5111 	 
C 	 13.4765 	 -13.0879 	 74.5175 	 
C 	 12.4732 	 -13.8944 	 75.0944 	 
C 	 12.2382 	 -13.6268 	 76.414 	 
H 	 13.7914 	 -13.0282 	 73.5351 	 
C 	 11.6608 	 -14.9957 	 74.4399 	 
H 	 11.51 	 -14.704 	 73.4202 	 
H 	 10.6201 	 -15.1132 	 74.8521 	 
C 	 12.3613 	 -16.3467 	 74.6561 	 
H 	 12.1017 	 -16.6557 	 75.6832 	 
H 	 13.4202 	 -16.1435 	 74.5188 	 
C 	 11.8778 	 -17.6008 	 73.7795 	 
H 	 10.8444 	 -17.4428 	 73.4397 	 
H 	 11.6123 	 -18.4716 	 74.3647 	 
H 	 12.5179 	 -17.8549 	 72.9388 	 
H 	 10.2277 	 -16.1543 	 80.1856 	 
H 	 15.074 	 -11.7602 	 75.3197 	 
