34

S 	 12.7099 	 -7.02743 	 72.9047 	 
C 	 12.4304 	 -5.51651 	 73.785 	 
C 	 12.2596 	 -4.4468 	 72.8808 	 
C 	 12.6409 	 -4.95095 	 71.546 	 
C 	 13.1247 	 -6.2083 	 71.4331 	 
H 	 12.702 	 -4.2992 	 70.624 	 
C 	 11.8026 	 -3.06402 	 73.1913 	 
H 	 11.6826 	 -2.98348 	 74.2677 	 
H 	 10.8962 	 -3.00371 	 72.5723 	 
C 	 12.8194 	 -1.99912 	 72.8089 	 
H 	 13.8006 	 -2.2295 	 73.1384 	 
H 	 12.9447 	 -2.09891 	 71.7015 	 
C 	 12.356 	 -0.597419 	 73.1839 	 
H 	 12.1026 	 -0.471223 	 74.2393 	 
H 	 13.0146 	 0.146718 	 72.8811 	 
H 	 11.3195 	 -0.295589 	 72.7458 	 
S 	 15.1396 	 -7.44622 	 70.0286 	 
C 	 14.8629 	 -7.7494 	 68.356 	 
C 	 13.4831 	 -7.69333 	 67.9692 	 
C 	 12.6697 	 -7.21188 	 69.0678 	 
C 	 13.4562 	 -6.93475 	 70.177 	 
H 	 13.092 	 -7.89332 	 66.9207 	 
C 	 11.1472 	 -7.07904 	 68.9468 	 
H 	 10.8789 	 -6.73511 	 67.9408 	 
H 	 10.7927 	 -6.24501 	 69.5133 	 
C 	 10.4208 	 -8.30866 	 69.5037 	 
H 	 10.1332 	 -8.03844 	 70.5395 	 
H 	 11.1338 	 -9.11193 	 69.5157 	 
C 	 9.22205 	 -8.74923 	 68.6051 	 
H 	 8.8954 	 -9.79042 	 68.8193 	 
H 	 9.50735 	 -8.81343 	 67.4847 	 
H 	 8.35784 	 -8.08774 	 68.5869 	 
H 	 12.1412 	 -5.49957 	 74.8345 	 
H 	 15.6115 	 -8.12346 	 67.6507 	 
