34

S 	 53.5149 	 13.2552 	 62.6776 	 
C 	 55.0997 	 13.8879 	 63.228 	 
C 	 56.0472 	 13.8761 	 62.2164 	 
C 	 55.4386 	 13.6133 	 60.9269 	 
C 	 54.1056 	 13.2726 	 60.9827 	 
H 	 55.9857 	 13.4991 	 60.0152 	 
C 	 57.4815 	 14.2186 	 62.3918 	 
H 	 57.7361 	 14.3007 	 63.5451 	 
H 	 57.6984 	 15.2638 	 62.0792 	 
C 	 58.5566 	 13.2094 	 61.9946 	 
H 	 59.464 	 13.6855 	 62.3437 	 
H 	 58.6626 	 12.2775 	 62.5784 	 
C 	 58.8029 	 12.7973 	 60.5874 	 
H 	 58.0068 	 12.09 	 60.3303 	 
H 	 58.6651 	 13.6941 	 60.0435 	 
H 	 59.7892 	 12.3567 	 60.4659 	 
S 	 51.8802 	 11.7639 	 60.3625 	 
C 	 51.675 	 11.2825 	 58.7204 	 
C 	 52.5375 	 11.928 	 57.9048 	 
C 	 53.4263 	 12.8434 	 58.57 	 
C 	 53.3196 	 12.7472 	 59.918 	 
H 	 52.4379 	 11.802 	 56.8222 	 
C 	 54.4947 	 13.5832 	 57.7152 	 
H 	 54.869 	 14.5021 	 58.2962 	 
H 	 54.0089 	 14.0609 	 56.8038 	 
C 	 55.6475 	 12.6852 	 57.2435 	 
H 	 55.9028 	 11.9571 	 58.0358 	 
H 	 56.5074 	 13.364 	 57.0251 	 
C 	 55.2366 	 11.8466 	 56.06 	 
H 	 54.8022 	 10.9199 	 56.4797 	 
H 	 56.1209 	 11.4502 	 55.5976 	 
H 	 54.5828 	 12.2029 	 55.2397 	 
H 	 55.2497 	 14.1232 	 64.2265 	 
H 	 50.9899 	 10.5042 	 58.4261 	 
