34

S 	 11.3461 	 -20.2571 	 84.5652 	 
C 	 10.1139 	 -21.5556 	 85.0139 	 
C 	 8.85762 	 -21.05 	 85.1698 	 
C 	 8.90385 	 -19.5955 	 85.1882 	 
C 	 10.0595 	 -19.0285 	 84.777 	 
H 	 8.09463 	 -18.9142 	 85.3622 	 
C 	 7.63553 	 -21.7723 	 85.5194 	 
H 	 7.70482 	 -22.8064 	 85.0375 	 
H 	 6.84464 	 -21.3603 	 84.9206 	 
C 	 7.26944 	 -21.9754 	 86.998 	 
H 	 6.28569 	 -22.5453 	 86.9884 	 
H 	 8.05411 	 -22.6422 	 87.3526 	 
C 	 7.21457 	 -20.7441 	 87.9474 	 
H 	 8.01255 	 -20.0701 	 87.6588 	 
H 	 6.333 	 -20.1994 	 87.6268 	 
H 	 7.14195 	 -20.9729 	 89.1055 	 
S 	 9.88884 	 -16.9533 	 83.2031 	 
C 	 10.3451 	 -15.4087 	 83.8385 	 
C 	 10.9256 	 -15.45 	 85.0918 	 
C 	 10.8788 	 -16.7748 	 85.6092 	 
C 	 10.2729 	 -17.6346 	 84.7238 	 
H 	 11.3654 	 -14.5436 	 85.5591 	 
C 	 11.3185 	 -17.0494 	 87.0069 	 
H 	 12.132 	 -16.4091 	 87.1772 	 
H 	 11.7276 	 -18.0127 	 86.9838 	 
C 	 10.2585 	 -16.7837 	 88.1006 	 
H 	 10.6661 	 -17.2091 	 89.0412 	 
H 	 9.30336 	 -17.3988 	 87.8994 	 
C 	 9.78527 	 -15.3291 	 88.1956 	 
H 	 9.38118 	 -15.0664 	 89.152 	 
H 	 9.07428 	 -15.1416 	 87.4664 	 
H 	 10.5341 	 -14.6382 	 88.0988 	 
H 	 10.346 	 -22.5757 	 85.0286 	 
H 	 10.4725 	 -14.5113 	 83.2428 	 
