34

S 	 -52.1894 	 39.3116 	 110.846 	 
C 	 -50.5179 	 39.7181 	 110.693 	 
C 	 -49.887 	 39.0039 	 109.726 	 
C 	 -50.8518 	 38.1203 	 109.077 	 
C 	 -52.1681 	 38.1381 	 109.579 	 
H 	 -50.5089 	 37.4274 	 108.23 	 
C 	 -48.5069 	 39.2614 	 109.269 	 
H 	 -48.0512 	 39.9035 	 110.02 	 
H 	 -48.6755 	 39.8756 	 108.403 	 
C 	 -47.5361 	 38.0473 	 109.019 	 
H 	 -47.5933 	 37.3978 	 109.905 	 
H 	 -47.9704 	 37.5603 	 108.112 	 
C 	 -46.1689 	 38.4502 	 108.599 	 
H 	 -45.5111 	 37.6714 	 108.542 	 
H 	 -46.3509 	 38.8966 	 107.59 	 
H 	 -45.7652 	 39.1941 	 109.355 	 
S 	 -54.2138 	 36.9648 	 110.944 	 
C 	 -55.0071 	 35.4716 	 110.457 	 
C 	 -54.3316 	 34.9558 	 109.396 	 
C 	 -53.4445 	 35.9111 	 108.74 	 
C 	 -53.2051 	 37.0784 	 109.545 	 
H 	 -54.6424 	 34.0221 	 109.065 	 
C 	 -52.8157 	 35.5974 	 107.437 	 
H 	 -52.3202 	 36.5034 	 107.027 	 
H 	 -53.6333 	 35.445 	 106.743 	 
C 	 -51.9095 	 34.3369 	 107.31 	 
H 	 -51.9609 	 33.9547 	 106.32 	 
H 	 -52.3657 	 33.4101 	 107.767 	 
C 	 -50.5539 	 34.5261 	 107.964 	 
H 	 -50.0462 	 35.428 	 107.523 	 
H 	 -49.856 	 33.6488 	 107.894 	 
H 	 -50.6231 	 34.6312 	 109.055 	 
H 	 -50.0371 	 40.3932 	 111.343 	 
H 	 -55.704 	 34.9565 	 111.028 	 
