34

S 	 -51.8837 	 24.1422 	 93.1574 	 
C 	 -50.5339 	 23.2728 	 92.4387 	 
C 	 -50.8641 	 22.8631 	 91.1724 	 
C 	 -52.1931 	 23.1955 	 90.7951 	 
C 	 -52.9364 	 23.6755 	 91.8331 	 
H 	 -52.6147 	 22.9667 	 89.7889 	 
C 	 -49.7946 	 22.2669 	 90.1616 	 
H 	 -49.0429 	 21.5662 	 90.6758 	 
H 	 -49.1846 	 23.17 	 89.8477 	 
C 	 -50.3313 	 21.6545 	 88.8643 	 
H 	 -50.8948 	 20.7455 	 89.1049 	 
H 	 -50.805 	 22.4575 	 88.2716 	 
C 	 -49.1537 	 21.1781 	 87.9527 	 
H 	 -49.5945 	 20.8898 	 86.952 	 
H 	 -48.4378 	 22.0845 	 87.8423 	 
H 	 -48.5026 	 20.4518 	 88.4043 	 
S 	 -55.0522 	 25.4261 	 92.5277 	 
C 	 -56.6617 	 24.8654 	 92.1795 	 
C 	 -56.6902 	 23.6339 	 91.5983 	 
C 	 -55.3982 	 23.1109 	 91.3372 	 
C 	 -54.3801 	 23.9345 	 91.8971 	 
H 	 -57.6558 	 23.2074 	 91.3499 	 
C 	 -55.087 	 21.7439 	 90.6857 	 
H 	 -54.2657 	 21.3377 	 91.2464 	 
H 	 -54.7684 	 21.8143 	 89.641 	 
C 	 -56.2472 	 20.7524 	 90.6189 	 
H 	 -56.9053 	 21.0987 	 89.8038 	 
H 	 -56.9234 	 20.9469 	 91.4361 	 
C 	 -55.7885 	 19.2962 	 90.5355 	 
H 	 -56.5391 	 18.5303 	 90.3952 	 
H 	 -55.2062 	 19.0843 	 91.4674 	 
H 	 -55.0337 	 19.1509 	 89.755 	 
H 	 -49.5778 	 23.2222 	 92.9282 	 
H 	 -57.5684 	 25.2859 	 92.5378 	 
