34

S 	 -17.0551 	 -3.30053 	 82.8887 	 
C 	 -16.352 	 -3.97867 	 81.4824 	 
C 	 -15.9113 	 -5.27491 	 81.7599 	 
C 	 -16.025 	 -5.55976 	 83.1562 	 
C 	 -16.6112 	 -4.60851 	 83.9466 	 
H 	 -15.7655 	 -6.44395 	 83.6546 	 
C 	 -15.3413 	 -6.21131 	 80.706 	 
H 	 -14.3955 	 -6.3679 	 81.23 	 
H 	 -15.0346 	 -5.70761 	 79.7859 	 
C 	 -15.9973 	 -7.57332 	 80.36 	 
H 	 -16.2393 	 -8.24939 	 81.2435 	 
H 	 -16.9794 	 -7.27237 	 79.9191 	 
C 	 -15.1406 	 -8.38369 	 79.5577 	 
H 	 -14.7707 	 -7.95187 	 78.612 	 
H 	 -14.2575 	 -8.55171 	 80.2548 	 
H 	 -15.4915 	 -9.37496 	 79.3148 	 
S 	 -18.6101 	 -5.23042 	 85.5978 	 
C 	 -18.4279 	 -5.29082 	 87.3188 	 
C 	 -17.1767 	 -4.85078 	 87.7478 	 
C 	 -16.3378 	 -4.45984 	 86.5987 	 
C 	 -16.9626 	 -4.73746 	 85.3522 	 
H 	 -16.8915 	 -4.84925 	 88.7767 	 
C 	 -15.0288 	 -3.75639 	 86.7165 	 
H 	 -14.5601 	 -4.14844 	 85.7764 	 
H 	 -14.4064 	 -4.24376 	 87.5268 	 
C 	 -14.9864 	 -2.22157 	 86.6327 	 
H 	 -15.8707 	 -1.79395 	 87.1102 	 
H 	 -14.9142 	 -1.85478 	 85.6229 	 
C 	 -13.6506 	 -1.71618 	 87.3054 	 
H 	 -13.6231 	 -0.61968 	 87.2435 	 
H 	 -12.6934 	 -2.11383 	 86.9109 	 
H 	 -13.5681 	 -2.01055 	 88.3603 	 
H 	 -16.4142 	 -3.54036 	 80.5361 	 
H 	 -19.1931 	 -5.62658 	 88.0673 	 
