34

S 	 6.13396 	 20.7328 	 40.8351 	 
C 	 6.30819 	 22.3026 	 40.0712 	 
C 	 7.56916 	 22.8713 	 40.3057 	 
C 	 8.49044 	 22.0389 	 40.9798 	 
C 	 7.8655 	 20.791 	 41.2444 	 
H 	 9.47943 	 22.0527 	 41.3177 	 
C 	 8.08469 	 24.2515 	 39.8517 	 
H 	 7.73208 	 24.107 	 38.7524 	 
H 	 9.20495 	 24.2319 	 39.7477 	 
C 	 7.49157 	 25.4283 	 40.5222 	 
H 	 6.49667 	 25.2706 	 40.8012 	 
H 	 7.97446 	 25.5818 	 41.5342 	 
C 	 7.69464 	 26.6979 	 39.7036 	 
H 	 7.51302 	 27.6626 	 40.1824 	 
H 	 8.73945 	 26.6622 	 39.2874 	 
H 	 7.06427 	 26.8833 	 38.8505 	 
S 	 8.12606 	 18.9094 	 43.2488 	 
C 	 9.36766 	 17.6891 	 43.1739 	 
C 	 10.1598 	 17.8499 	 42.0293 	 
C 	 9.68381 	 18.9016 	 41.1445 	 
C 	 8.57968 	 19.5954 	 41.7106 	 
H 	 11.0599 	 17.2482 	 41.8941 	 
C 	 10.4851 	 19.3043 	 39.9316 	 
H 	 11.2882 	 18.6216 	 39.7985 	 
H 	 10.8067 	 20.2573 	 40.2426 	 
C 	 9.74655 	 19.5869 	 38.6442 	 
H 	 8.81052 	 20.074 	 38.9152 	 
H 	 9.41026 	 18.6253 	 38.2205 	 
C 	 10.4886 	 20.3934 	 37.5536 	 
H 	 10.0392 	 20.572 	 36.5971 	 
H 	 11.4272 	 20.0541 	 37.3384 	 
H 	 10.8393 	 21.4562 	 37.8985 	 
H 	 5.50858 	 22.7793 	 39.5976 	 
H 	 9.80027 	 17.0631 	 43.9778 	 
