34

S 	 -37.2145 	 30.1992 	 81.1552 	 
C 	 -36.6252 	 30.0667 	 79.521 	 
C 	 -37.5119 	 29.605 	 78.6152 	 
C 	 -38.7841 	 29.3577 	 79.2743 	 
C 	 -38.7998 	 29.6957 	 80.6253 	 
H 	 -39.6981 	 28.9939 	 78.8686 	 
C 	 -37.2987 	 29.3704 	 77.1493 	 
H 	 -37.6122 	 28.3616 	 76.9053 	 
H 	 -36.1871 	 29.4416 	 77.0341 	 
C 	 -37.9205 	 30.3528 	 76.206 	 
H 	 -38.9981 	 30.0351 	 76.0701 	 
H 	 -37.9917 	 31.2224 	 76.7257 	 
C 	 -37.2037 	 30.359 	 74.8466 	 
H 	 -37.3415 	 29.399 	 74.3562 	 
H 	 -37.6749 	 31.088 	 74.1495 	 
H 	 -36.1156 	 30.6985 	 75.0261 	 
S 	 -40.63 	 31.1535 	 82.1946 	 
C 	 -41.8499 	 30.1905 	 83.0032 	 
C 	 -41.8123 	 28.8329 	 82.7275 	 
C 	 -40.7544 	 28.4863 	 81.862 	 
C 	 -39.9392 	 29.6021 	 81.543 	 
H 	 -42.4234 	 28.1276 	 83.2146 	 
C 	 -40.4579 	 27.0637 	 81.5564 	 
H 	 -40.4921 	 26.5754 	 82.4962 	 
H 	 -39.4866 	 26.7919 	 81.0861 	 
C 	 -41.6156 	 26.4646 	 80.7799 	 
H 	 -41.4312 	 26.8193 	 79.7054 	 
H 	 -42.6699 	 26.7878 	 81.1186 	 
C 	 -41.5946 	 24.9207 	 80.8477 	 
H 	 -42.0187 	 24.4577 	 81.7935 	 
H 	 -40.5488 	 24.6589 	 80.9325 	 
H 	 -42.0991 	 24.3314 	 80.0399 	 
H 	 -35.5308 	 30.1982 	 79.3245 	 
H 	 -42.5734 	 30.6601 	 83.6517 	 
