34

S 	 -79.5884 	 44.2519 	 139.034 	 
C 	 -78.8914 	 43.0323 	 140.099 	 
C 	 -78.0487 	 42.109 	 139.336 	 
C 	 -77.9015 	 42.5865 	 137.968 	 
C 	 -78.5661 	 43.8155 	 137.724 	 
H 	 -77.0775 	 42.2348 	 137.294 	 
C 	 -77.4233 	 40.8592 	 139.826 	 
H 	 -77.7934 	 40.7702 	 140.843 	 
H 	 -76.3547 	 41.0861 	 139.984 	 
C 	 -77.7402 	 39.5436 	 139.109 	 
H 	 -77.438 	 39.724 	 138.068 	 
H 	 -77.1313 	 38.6723 	 139.349 	 
C 	 -79.2908 	 39.1067 	 139.266 	 
H 	 -80.0487 	 39.7643 	 138.876 	 
H 	 -79.4056 	 38.1323 	 138.824 	 
H 	 -79.4782 	 38.8351 	 140.279 	 
S 	 -78.3143 	 46.4371 	 136.94 	 
C 	 -78.2699 	 46.7204 	 135.233 	 
C 	 -77.934 	 45.6148 	 134.509 	 
C 	 -78.0646 	 44.4014 	 135.284 	 
C 	 -78.3894 	 44.6651 	 136.6 	 
H 	 -77.7694 	 45.5976 	 133.488 	 
C 	 -77.8073 	 43.0525 	 134.574 	 
H 	 -76.8377 	 42.7101 	 134.968 	 
H 	 -77.6481 	 43.2998 	 133.488 	 
C 	 -78.8198 	 41.962 	 134.648 	 
H 	 -78.9908 	 41.79 	 135.697 	 
H 	 -78.3468 	 41.0389 	 134.201 	 
C 	 -80.1404 	 42.2259 	 133.95 	 
H 	 -80.9772 	 41.525 	 134.321 	 
H 	 -80.0626 	 42.1177 	 132.893 	 
H 	 -80.5607 	 43.2537 	 134.063 	 
H 	 -79.1484 	 42.8384 	 141.117 	 
H 	 -78.3125 	 47.7278 	 134.714 	 
