34

S 	 -25.1124 	 56.1311 	 113.674 	 
C 	 -23.8937 	 56.718 	 112.612 	 
C 	 -24.4469 	 57.2828 	 111.446 	 
C 	 -25.8885 	 57.2281 	 111.538 	 
C 	 -26.4161 	 56.4731 	 112.571 	 
H 	 -26.4817 	 57.7277 	 110.798 	 
C 	 -23.7759 	 58.1687 	 110.435 	 
H 	 -22.841 	 58.639 	 110.744 	 
H 	 -24.4185 	 59.0029 	 110.355 	 
C 	 -23.7747 	 57.6966 	 108.949 	 
H 	 -24.656 	 57.0495 	 108.71 	 
H 	 -23.7676 	 58.524 	 108.211 	 
C 	 -22.5501 	 56.8525 	 108.598 	 
H 	 -22.4968 	 56.5518 	 107.51 	 
H 	 -21.5623 	 57.3225 	 108.831 	 
H 	 -22.5463 	 55.8631 	 109.019 	 
S 	 -27.9486 	 54.2912 	 112.871 	 
C 	 -29.7107 	 54.5236 	 113.15 	 
C 	 -30.0769 	 55.8886 	 113.08 	 
C 	 -28.9916 	 56.7304 	 112.772 	 
C 	 -27.7809 	 56.0176 	 112.749 	 
H 	 -31.1399 	 56.1622 	 113.265 	 
C 	 -29.1213 	 58.2082 	 112.863 	 
H 	 -28.14 	 58.7053 	 112.826 	 
H 	 -29.4392 	 58.5219 	 113.83 	 
C 	 -30.1836 	 58.7265 	 111.83 	 
H 	 -30.1651 	 59.8015 	 111.95 	 
H 	 -31.1914 	 58.4091 	 112.002 	 
C 	 -29.7792 	 58.3279 	 110.297 	 
H 	 -28.7183 	 58.6239 	 109.979 	 
H 	 -30.3343 	 59.007 	 109.57 	 
H 	 -30.0013 	 57.2897 	 110.008 	 
H 	 -22.8512 	 56.8346 	 112.805 	 
H 	 -30.4443 	 53.7673 	 113.358 	 
