34

S 	 -33.5091 	 58.8744 	 113.72 	 
C 	 -34.7293 	 58.1067 	 112.68 	 
C 	 -35.8494 	 57.8036 	 113.361 	 
C 	 -35.8106 	 58.2495 	 114.7 	 
C 	 -34.58 	 58.8944 	 115.046 	 
H 	 -36.5586 	 58.1585 	 115.506 	 
C 	 -37.1222 	 57.1888 	 112.766 	 
H 	 -37.6291 	 56.5854 	 113.526 	 
H 	 -36.8179 	 56.4458 	 112.093 	 
C 	 -38.147 	 58.1607 	 112.134 	 
H 	 -38.2794 	 58.9869 	 112.768 	 
H 	 -37.6733 	 58.6639 	 111.267 	 
C 	 -39.5006 	 57.5072 	 111.784 	 
H 	 -40.0981 	 58.2976 	 111.195 	 
H 	 -39.4604 	 56.6264 	 111.142 	 
H 	 -39.9901 	 57.1985 	 112.681 	 
S 	 -32.5965 	 58.9476 	 116.995 	 
C 	 -33.03 	 59.5527 	 118.524 	 
C 	 -34.1779 	 60.3029 	 118.482 	 
C 	 -34.8029 	 60.2998 	 117.208 	 
C 	 -34.1521 	 59.4925 	 116.328 	 
H 	 -34.6137 	 60.4373 	 119.447 	 
C 	 -36.1785 	 60.8855 	 117.033 	 
H 	 -36.4231 	 61.2239 	 115.988 	 
H 	 -36.2745 	 61.8662 	 117.562 	 
C 	 -37.238 	 60.0042 	 117.675 	 
H 	 -37.1929 	 60.104 	 118.771 	 
H 	 -37.0828 	 58.9261 	 117.459 	 
C 	 -38.6601 	 60.5167 	 117.168 	 
H 	 -38.7345 	 60.3673 	 116.058 	 
H 	 -38.9251 	 61.5419 	 117.506 	 
H 	 -39.4232 	 59.8089 	 117.507 	 
H 	 -34.6909 	 57.8791 	 111.638 	 
H 	 -32.4425 	 59.4121 	 119.443 	 
