34

S 	 -69.5652 	 37.9074 	 122.971 	 
C 	 -70.0993 	 39.5292 	 123.313 	 
C 	 -69.103 	 40.4707 	 123.153 	 
C 	 -67.8561 	 39.8019 	 122.805 	 
C 	 -67.9403 	 38.4234 	 122.795 	 
H 	 -66.8465 	 40.2629 	 122.786 	 
C 	 -69.2836 	 41.9536 	 123.337 	 
H 	 -69.9703 	 42.43 	 122.658 	 
H 	 -68.2789 	 42.3572 	 122.993 	 
C 	 -69.5301 	 42.3059 	 124.778 	 
H 	 -70.481 	 41.7616 	 125.018 	 
H 	 -68.7614 	 41.8869 	 125.453 	 
C 	 -69.541 	 43.8598 	 124.952 	 
H 	 -68.7075 	 44.3754 	 124.439 	 
H 	 -70.4531 	 44.1744 	 124.402 	 
H 	 -69.717 	 44.1692 	 126.039 	 
S 	 -67.1085 	 36.2583 	 121.312 	 
C 	 -65.5775 	 35.5702 	 121.721 	 
C 	 -64.8673 	 36.3226 	 122.67 	 
C 	 -65.6174 	 37.394 	 123.182 	 
C 	 -66.8541 	 37.4954 	 122.583 	 
H 	 -63.7797 	 36.1403 	 122.815 	 
C 	 -65.0035 	 38.4264 	 124.122 	 
H 	 -64.7305 	 37.9651 	 125.093 	 
H 	 -65.6768 	 39.2275 	 124.424 	 
C 	 -63.8318 	 39.2189 	 123.492 	 
H 	 -63.2352 	 38.4789 	 122.97 	 
H 	 -63.3041 	 39.6372 	 124.327 	 
C 	 -64.0781 	 40.2556 	 122.317 	 
H 	 -63.2344 	 40.6343 	 121.722 	 
H 	 -64.5527 	 41.1475 	 122.671 	 
H 	 -64.8532 	 39.8554 	 121.649 	 
H 	 -71.1292 	 39.7269 	 123.605 	 
H 	 -64.9747 	 34.8461 	 121.153 	 
