34

S 	 -114.785 	 52.4248 	 133.523 	 
C 	 -113.946 	 53.8396 	 133.993 	 
C 	 -112.943 	 53.517 	 134.85 	 
C 	 -112.993 	 52.148 	 135.307 	 
C 	 -114.08 	 51.4478 	 134.813 	 
H 	 -112.238 	 51.7309 	 135.955 	 
C 	 -111.857 	 54.4952 	 135.256 	 
H 	 -111.534 	 55.0933 	 134.435 	 
H 	 -110.948 	 53.918 	 135.522 	 
C 	 -112.152 	 55.3877 	 136.438 	 
H 	 -113.159 	 55.8338 	 136.353 	 
H 	 -112.193 	 54.8754 	 137.415 	 
C 	 -111.198 	 56.6096 	 136.547 	 
H 	 -111.352 	 57.3862 	 135.789 	 
H 	 -111.429 	 57.0932 	 137.524 	 
H 	 -110.159 	 56.2539 	 136.502 	 
S 	 -115.113 	 49.2404 	 133.66 	 
C 	 -115.248 	 47.8358 	 134.718 	 
C 	 -114.821 	 48.0088 	 135.965 	 
C 	 -114.3 	 49.3111 	 136.163 	 
C 	 -114.376 	 50.0762 	 135.046 	 
H 	 -114.912 	 47.3169 	 136.677 	 
C 	 -113.758 	 49.6856 	 137.492 	 
H 	 -112.924 	 50.4816 	 137.449 	 
H 	 -113.135 	 48.8061 	 137.725 	 
C 	 -114.798 	 49.8221 	 138.692 	 
H 	 -115.382 	 48.8963 	 138.814 	 
H 	 -115.663 	 50.4684 	 138.461 	 
C 	 -114.182 	 50.1709 	 140 	 
H 	 -113.818 	 51.2084 	 139.985 	 
H 	 -113.351 	 49.5261 	 140.298 	 
H 	 -114.96 	 50.0983 	 140.842 	 
H 	 -113.904 	 54.7904 	 133.515 	 
H 	 -115.798 	 46.8878 	 134.418 	 
