34

S 	 -83.3553 	 39.2328 	 131.299 	 
C 	 -83.8628 	 38.5851 	 132.848 	 
C 	 -85.1963 	 38.8467 	 133.118 	 
C 	 -85.8702 	 39.4769 	 132.01 	 
C 	 -84.9534 	 39.6135 	 130.988 	 
H 	 -86.8894 	 39.7498 	 131.937 	 
C 	 -85.884 	 38.4323 	 134.397 	 
H 	 -86.8998 	 38.2371 	 134.056 	 
H 	 -85.8125 	 39.218 	 135.116 	 
C 	 -85.4928 	 37.1107 	 134.997 	 
H 	 -84.5072 	 37.1963 	 135.44 	 
H 	 -86.0599 	 36.9612 	 135.943 	 
C 	 -85.6881 	 35.8758 	 134.082 	 
H 	 -85.491 	 34.9263 	 134.471 	 
H 	 -86.6366 	 35.9043 	 133.646 	 
H 	 -84.9401 	 35.9421 	 133.242 	 
S 	 -86.1242 	 39.2557 	 128.572 	 
C 	 -86.7293 	 40.6924 	 127.688 	 
C 	 -86.2546 	 41.8708 	 128.211 	 
C 	 -85.4495 	 41.6192 	 129.409 	 
C 	 -85.3944 	 40.2516 	 129.757 	 
H 	 -86.5786 	 42.8049 	 127.778 	 
C 	 -84.8577 	 42.6646 	 130.317 	 
H 	 -84.3492 	 42.1526 	 131.088 	 
H 	 -85.6945 	 43.2686 	 130.764 	 
C 	 -83.7731 	 43.5603 	 129.669 	 
H 	 -84.2028 	 44.2976 	 128.925 	 
H 	 -82.9919 	 42.9841 	 128.995 	 
C 	 -82.9258 	 44.3995 	 130.588 	 
H 	 -82.6905 	 43.7268 	 131.439 	 
H 	 -83.3493 	 45.3004 	 130.897 	 
H 	 -81.9801 	 44.7453 	 130.267 	 
H 	 -83.2948 	 38.0361 	 133.55 	 
H 	 -87.3543 	 40.5836 	 126.776 	 
