34

S 	 9.6825 	 23.6013 	 36.4442 	 
C 	 8.33751 	 24.755 	 36.6211 	 
C 	 7.13187 	 24.1677 	 36.9591 	 
C 	 7.2503 	 22.7674 	 37.042 	 
C 	 8.55233 	 22.2584 	 36.8382 	 
H 	 6.44269 	 22.1544 	 37.3409 	 
C 	 5.85142 	 24.9035 	 37.1239 	 
H 	 5.95369 	 25.9501 	 37.3793 	 
H 	 5.43315 	 24.5583 	 38.0724 	 
C 	 4.73668 	 24.4852 	 36.0505 	 
H 	 5.04777 	 24.4878 	 35.0569 	 
H 	 4.38178 	 23.5096 	 36.2363 	 
C 	 3.40685 	 25.3549 	 36.1809 	 
H 	 3.02633 	 25.5437 	 37.222 	 
H 	 3.59278 	 26.3033 	 35.686 	 
H 	 2.48952 	 24.9697 	 35.7546 	 
S 	 10.637 	 20.5096 	 36.2875 	 
C 	 10.4475 	 18.7963 	 36.505 	 
C 	 9.09652 	 18.4686 	 36.4307 	 
C 	 8.28759 	 19.6169 	 36.7266 	 
C 	 8.94769 	 20.8468 	 36.6877 	 
H 	 8.75954 	 17.4198 	 36.4157 	 
C 	 6.81074 	 19.4526 	 36.7549 	 
H 	 6.31908 	 18.5524 	 36.3408 	 
H 	 6.40508 	 20.3219 	 36.2482 	 
C 	 6.16656 	 19.345 	 38.1197 	 
H 	 6.53892 	 20.1996 	 38.7175 	 
H 	 6.68398 	 18.494 	 38.5235 	 
C 	 4.6787 	 19.1128 	 38.2144 	 
H 	 4.31011 	 18.3328 	 37.5228 	 
H 	 4.08256 	 19.9888 	 38.085 	 
H 	 4.368 	 18.6836 	 39.2011 	 
H 	 8.37011 	 25.8112 	 36.4967 	 
H 	 11.2315 	 18.0919 	 36.1903 	 
