34

S 	 3.32066 	 -5.04512 	 76.9671 	 
C 	 1.78844 	 -4.39443 	 76.3279 	 
C 	 1.16599 	 -3.65029 	 77.2988 	 
C 	 2.0272 	 -3.3378 	 78.4056 	 
C 	 3.26099 	 -4.04705 	 78.3778 	 
H 	 1.86044 	 -2.714 	 79.2957 	 
C 	 -0.210633 	 -2.98363 	 77.3127 	 
H 	 -0.705079 	 -3.37298 	 78.2082 	 
H 	 -0.852217 	 -3.40943 	 76.4781 	 
C 	 -0.174253 	 -1.47636 	 77.2613 	 
H 	 -1.08377 	 -1.16021 	 77.8071 	 
H 	 0.788315 	 -1.07035 	 77.7098 	 
C 	 -0.16566 	 -0.935666 	 75.7763 	 
H 	 -0.258512 	 0.146154 	 75.7515 	 
H 	 0.776836 	 -1.11604 	 75.3255 	 
H 	 -0.898625 	 -1.33379 	 75.1067 	 
S 	 5.92718 	 -3.18892 	 78.6515 	 
C 	 6.79319 	 -3.76744 	 80.0386 	 
C 	 5.96196 	 -4.20233 	 81.0671 	 
C 	 4.57983 	 -4.33007 	 80.6005 	 
C 	 4.4468 	 -3.98667 	 79.2469 	 
H 	 6.39913 	 -4.43886 	 82.0015 	 
C 	 3.56546 	 -5.02034 	 81.4642 	 
H 	 4.14779 	 -5.44194 	 82.3285 	 
H 	 3.21056 	 -5.91748 	 80.8047 	 
C 	 2.39968 	 -4.11698 	 81.9497 	 
H 	 1.53701 	 -4.74535 	 82.2937 	 
H 	 2.00943 	 -3.76284 	 80.9813 	 
C 	 2.86541 	 -3.06215 	 82.9691 	 
H 	 3.02694 	 -3.52672 	 83.9031 	 
H 	 2.10256 	 -2.27811 	 83.1701 	 
H 	 3.74466 	 -2.57993 	 82.56 	 
H 	 1.18155 	 -4.84408 	 75.5742 	 
H 	 7.77853 	 -3.58146 	 80.2738 	 
