34

S 	 48.5682 	 11.0561 	 79.4679 	 
C 	 47.3627 	 10.444 	 80.636 	 
C 	 46.1136 	 11.0725 	 80.4708 	 
C 	 46.1693 	 12.064 	 79.4325 	 
C 	 47.4044 	 12.2118 	 78.8121 	 
H 	 45.3748 	 12.694 	 79.1792 	 
C 	 44.8777 	 10.8301 	 81.2622 	 
H 	 44.9068 	 9.88558 	 81.7359 	 
H 	 44.194 	 10.732 	 80.4326 	 
C 	 44.4134 	 11.951 	 82.1382 	 
H 	 44.9907 	 12.1635 	 82.9519 	 
H 	 44.2126 	 12.844 	 81.5133 	 
C 	 43.156 	 11.4841 	 82.8792 	 
H 	 42.3874 	 11.1854 	 82.2086 	 
H 	 43.3083 	 10.6885 	 83.5789 	 
H 	 42.864 	 12.2642 	 83.532 	 
S 	 49.3052 	 12.4672 	 76.8702 	 
C 	 48.8649 	 13.6002 	 75.5514 	 
C 	 47.9319 	 14.5677 	 75.9018 	 
C 	 47.3434 	 14.2486 	 77.1171 	 
C 	 47.7288 	 12.9899 	 77.6021 	 
H 	 47.6726 	 15.3924 	 75.2309 	 
C 	 46.1045 	 14.9999 	 77.5623 	 
H 	 45.2224 	 14.4174 	 77.4819 	 
H 	 45.9273 	 15.8606 	 76.7836 	 
C 	 46.5013 	 15.7116 	 78.8993 	 
H 	 47.4645 	 16.1341 	 78.9899 	 
H 	 46.3603 	 14.9073 	 79.6351 	 
C 	 45.4434 	 16.6916 	 79.2599 	 
H 	 45.4589 	 17.5878 	 78.5979 	 
H 	 45.5891 	 16.9931 	 80.2637 	 
H 	 44.4267 	 16.2595 	 79.1203 	 
H 	 47.4838 	 9.53529 	 81.2137 	 
H 	 49.3427 	 13.6052 	 74.5522 	 
