34

S 	 -12.2219 	 41.1806 	 31.5814 	 
C 	 -13.1297 	 40.6156 	 32.9755 	 
C 	 -14.0761 	 39.6356 	 32.7143 	 
C 	 -13.9017 	 39.2655 	 31.3134 	 
C 	 -12.9749 	 39.9874 	 30.5867 	 
H 	 -14.4655 	 38.4251 	 30.9059 	 
C 	 -15.0183 	 38.9937 	 33.7229 	 
H 	 -14.706 	 39.1542 	 34.7209 	 
H 	 -14.9815 	 37.8948 	 33.6553 	 
C 	 -16.4385 	 39.4111 	 33.6177 	 
H 	 -16.8332 	 39.1248 	 32.6714 	 
H 	 -16.9691 	 38.9349 	 34.4522 	 
C 	 -16.6657 	 40.948 	 33.7383 	 
H 	 -16.1843 	 41.4639 	 33.0001 	 
H 	 -17.7068 	 41.1635 	 33.5399 	 
H 	 -16.3096 	 41.3818 	 34.6922 	 
S 	 -12.5019 	 37.8959 	 28.8396 	 
C 	 -12.0212 	 38.2513 	 27.14 	 
C 	 -11.8089 	 39.589 	 27.0355 	 
C 	 -12.254 	 40.4424 	 28.1543 	 
C 	 -12.597 	 39.6532 	 29.237 	 
H 	 -11.5504 	 40.0007 	 26.1016 	 
C 	 -12.1891 	 41.9735 	 28.0987 	 
H 	 -11.3368 	 42.1958 	 27.3683 	 
H 	 -11.865 	 42.3591 	 29.0575 	 
C 	 -13.4915 	 42.6413 	 27.6812 	 
H 	 -13.4161 	 43.6506 	 28.0072 	 
H 	 -14.4154 	 42.274 	 28.2438 	 
C 	 -13.7573 	 42.6192 	 26.1509 	 
H 	 -14.0806 	 41.6553 	 25.8696 	 
H 	 -12.7832 	 42.8482 	 25.65 	 
H 	 -14.4432 	 43.4843 	 25.8219 	 
H 	 -13.0448 	 41.085 	 34.0046 	 
H 	 -11.5806 	 37.4801 	 26.5492 	 
