34

S 	 6.01492 	 -16.4911 	 67.8176 	 
C 	 6.54393 	 -18.0949 	 68.0122 	 
C 	 7.76932 	 -18.0724 	 68.6038 	 
C 	 8.1959 	 -16.7837 	 69.0906 	 
C 	 7.40246 	 -15.7797 	 68.6078 	 
H 	 9.06928 	 -16.5084 	 69.6502 	 
C 	 8.66175 	 -19.2459 	 68.7194 	 
H 	 8.14734 	 -20.1398 	 68.6143 	 
H 	 9.14633 	 -19.2666 	 69.7007 	 
C 	 9.78805 	 -19.3054 	 67.6979 	 
H 	 10.4949 	 -18.4777 	 67.8892 	 
H 	 10.343 	 -20.1792 	 67.8202 	 
C 	 9.42553 	 -19.159 	 66.2082 	 
H 	 8.53296 	 -19.8632 	 66.1417 	 
H 	 9.2258 	 -18.1493 	 65.8193 	 
H 	 10.2052 	 -19.6294 	 65.5554 	 
S 	 6.117 	 -13.8714 	 70.0475 	 
C 	 6.67863 	 -12.2705 	 70.1451 	 
C 	 8.00225 	 -12.2569 	 69.7401 	 
C 	 8.43835 	 -13.5153 	 69.119 	 
C 	 7.40971 	 -14.3833 	 69.003 	 
H 	 8.58176 	 -11.3923 	 69.8985 	 
C 	 9.8492 	 -13.7004 	 68.5786 	 
H 	 10.0128 	 -14.7688 	 68.309 	 
H 	 10.4735 	 -13.6173 	 69.45 	 
C 	 10.3447 	 -12.6834 	 67.5441 	 
H 	 11.262 	 -13.0989 	 67.1612 	 
H 	 10.6155 	 -11.7426 	 67.9927 	 
C 	 9.40283 	 -12.357 	 66.4117 	 
H 	 8.51723 	 -11.8627 	 66.8632 	 
H 	 9.0345 	 -13.1281 	 65.809 	 
H 	 9.75418 	 -11.7664 	 65.6058 	 
H 	 6.22317 	 -19.0669 	 67.5849 	 
H 	 6.02886 	 -11.4007 	 70.4958 	 
