34

S 	 18.1358 	 12.7263 	 87.9788 	 
C 	 19.4784 	 11.9178 	 87.1945 	 
C 	 19.1654 	 11.2439 	 86.0254 	 
C 	 17.7362 	 11.3264 	 85.8383 	 
C 	 17.0448 	 12.0423 	 86.8002 	 
H 	 17.1557 	 10.8158 	 85.118 	 
C 	 20.0076 	 10.4157 	 85.1347 	 
H 	 19.4605 	 9.51834 	 84.7339 	 
H 	 20.8423 	 10.063 	 85.7308 	 
C 	 20.4622 	 11.0978 	 83.8327 	 
H 	 20.8682 	 12.09 	 84.0421 	 
H 	 21.1642 	 10.3446 	 83.5561 	 
C 	 19.4734 	 11.1572 	 82.6504 	 
H 	 18.6582 	 11.7859 	 82.9517 	 
H 	 19.7993 	 11.6997 	 81.765 	 
H 	 19.0905 	 10.1582 	 82.3125 	 
S 	 15.0997 	 13.788 	 86.8988 	 
C 	 13.4171 	 13.2828 	 87.2486 	 
C 	 13.3168 	 11.9177 	 87.4236 	 
C 	 14.5803 	 11.2636 	 87.3024 	 
C 	 15.6234 	 12.1351 	 87.0637 	 
H 	 12.3071 	 11.52 	 87.5917 	 
C 	 14.7094 	 9.77973 	 87.4698 	 
H 	 15.3555 	 9.50003 	 86.6458 	 
H 	 13.7248 	 9.41112 	 87.2222 	 
C 	 15.1139 	 9.19165 	 88.8602 	 
H 	 16.1117 	 9.64165 	 89.0374 	 
H 	 15.0936 	 8.06189 	 88.8012 	 
C 	 14.1622 	 9.57988 	 89.9568 	 
H 	 14.2938 	 10.5866 	 90.2887 	 
H 	 14.2523 	 8.89478 	 90.8092 	 
H 	 13.1132 	 9.42916 	 89.6273 	 
H 	 20.5153 	 12.1694 	 87.4245 	 
H 	 12.5962 	 13.9656 	 87.3964 	 
