34

S 	 0.635741 	 -15.9167 	 87.009 	 
C 	 -0.517935 	 -17.2906 	 86.9371 	 
C 	 -0.331884 	 -17.9905 	 85.7811 	 
C 	 0.896245 	 -17.6126 	 85.0791 	 
C 	 1.52612 	 -16.5688 	 85.7086 	 
H 	 1.21488 	 -18.1424 	 84.1885 	 
C 	 -1.14672 	 -19.1454 	 85.2574 	 
H 	 -0.802874 	 -19.2872 	 84.25 	 
H 	 -2.16751 	 -18.8958 	 85.261 	 
C 	 -1.20417 	 -20.5105 	 86.0157 	 
H 	 -0.176301 	 -20.7563 	 86.2042 	 
H 	 -1.71238 	 -20.4693 	 86.9186 	 
C 	 -1.91225 	 -21.689 	 85.2682 	 
H 	 -2.98097 	 -21.4982 	 85.2073 	 
H 	 -1.48526 	 -21.8389 	 84.2827 	 
H 	 -1.89325 	 -22.7081 	 85.7145 	 
S 	 2.98113 	 -14.2358 	 85.8698 	 
C 	 4.29327 	 -13.8451 	 84.8498 	 
C 	 4.61099 	 -15.0027 	 84.0953 	 
C 	 3.77316 	 -16.1485 	 84.3543 	 
C 	 2.73829 	 -15.8676 	 85.2631 	 
H 	 5.4009 	 -15.0805 	 83.3602 	 
C 	 4.11607 	 -17.4596 	 83.673 	 
H 	 4.79295 	 -17.4213 	 82.8616 	 
H 	 3.23489 	 -17.7148 	 83.1201 	 
C 	 4.51647 	 -18.5986 	 84.6532 	 
H 	 3.76449 	 -18.8274 	 85.3585 	 
H 	 5.40002 	 -18.2753 	 85.1636 	 
C 	 4.73123 	 -19.9337 	 83.8714 	 
H 	 5.09694 	 -20.5936 	 84.5876 	 
H 	 5.45957 	 -19.7912 	 83.0496 	 
H 	 3.83406 	 -20.3068 	 83.4484 	 
H 	 -1.25221 	 -17.6368 	 87.6317 	 
H 	 4.7729 	 -12.8841 	 84.8569 	 
