34

S 	 39.6827 	 27.1121 	 95.2257 	 
C 	 40.4651 	 28.4552 	 95.8634 	 
C 	 41.4168 	 28.0716 	 96.7941 	 
C 	 41.545 	 26.6521 	 97.017 	 
C 	 40.6341 	 26.0071 	 96.2049 	 
H 	 42.256 	 26.193 	 97.664 	 
C 	 42.2491 	 29.1072 	 97.5216 	 
H 	 42.5221 	 28.7314 	 98.559 	 
H 	 41.6079 	 29.9657 	 97.7175 	 
C 	 43.5646 	 29.4573 	 96.7721 	 
H 	 43.2871 	 29.8886 	 95.8803 	 
H 	 44.2874 	 29.922 	 97.3864 	 
C 	 44.5269 	 28.2477 	 96.4442 	 
H 	 44.8688 	 27.732 	 97.326 	 
H 	 43.9847 	 27.4834 	 95.8176 	 
H 	 45.4488 	 28.574 	 95.9496 	 
S 	 39.4478 	 23.6771 	 96.9103 	 
C 	 39.8336 	 22.2596 	 95.9485 	 
C 	 40.5505 	 22.5891 	 94.785 	 
C 	 40.9398 	 23.9761 	 94.7904 	 
C 	 40.5614 	 24.6366 	 95.9178 	 
H 	 40.745 	 21.8447 	 93.986 	 
C 	 41.8692 	 24.4326 	 93.698 	 
H 	 42.3516 	 25.3295 	 94.0177 	 
H 	 41.2112 	 24.8507 	 92.9325 	 
C 	 42.8962 	 23.4772 	 92.9632 	 
H 	 43.5731 	 24.0885 	 92.3874 	 
H 	 42.2757 	 22.899 	 92.2641 	 
C 	 43.7571 	 22.5953 	 93.8443 	 
H 	 43.2193 	 21.8799 	 94.5445 	 
H 	 44.3852 	 23.2707 	 94.4819 	 
H 	 44.5035 	 22.071 	 93.2223 	 
H 	 40.1795 	 29.4922 	 95.5668 	 
H 	 39.4374 	 21.2396 	 96.1391 	 
