34

S 	 33.8164 	 2.53422 	 67.4812 	 
C 	 34.1844 	 4.24761 	 67.4386 	 
C 	 33.2549 	 5.0195 	 66.8546 	 
C 	 32.3516 	 4.11095 	 66.1429 	 
C 	 32.5244 	 2.75746 	 66.4033 	 
H 	 31.5608 	 4.29519 	 65.4669 	 
C 	 33.1721 	 6.49123 	 66.6617 	 
H 	 33.7628 	 7.0381 	 67.4562 	 
H 	 32.1263 	 6.71112 	 66.8517 	 
C 	 33.5883 	 7.02895 	 65.2842 	 
H 	 32.9252 	 6.40931 	 64.6364 	 
H 	 33.4019 	 8.09439 	 65.2757 	 
C 	 35.0319 	 6.80175 	 64.8584 	 
H 	 35.6443 	 7.36376 	 65.5565 	 
H 	 35.345 	 5.83442 	 65.0275 	 
H 	 35.1938 	 7.15896 	 63.854 	 
S 	 31.0118 	 0.579254 	 66.9215 	 
C 	 30.5767 	 -0.420872 	 65.5257 	 
C 	 30.7697 	 0.247424 	 64.3206 	 
C 	 31.5873 	 1.4266 	 64.4236 	 
C 	 31.7903 	 1.73707 	 65.7808 	 
H 	 30.3882 	 -0.108988 	 63.3691 	 
C 	 31.988 	 2.17697 	 63.2104 	 
H 	 32.7527 	 1.71289 	 62.6325 	 
H 	 32.4979 	 3.21598 	 63.3601 	 
C 	 30.8291 	 2.47875 	 62.2238 	 
H 	 29.8861 	 2.67964 	 62.693 	 
H 	 30.5739 	 1.59557 	 61.6642 	 
C 	 31.2295 	 3.65334 	 61.2541 	 
H 	 32.214 	 3.40199 	 60.8352 	 
H 	 31.3196 	 4.58894 	 61.7868 	 
H 	 30.4841 	 3.84123 	 60.4975 	 
H 	 34.853 	 4.81344 	 68.1057 	 
H 	 30.0055 	 -1.34631 	 65.5278 	 
