34

S 	 43.4643 	 23.3921 	 84.5015 	 
C 	 42.8946 	 22.9799 	 86.1276 	 
C 	 43.1271 	 24.0014 	 87.0004 	 
C 	 43.5655 	 25.1855 	 86.313 	 
C 	 43.5599 	 25.094 	 84.9394 	 
H 	 43.7642 	 26.0653 	 86.7596 	 
C 	 43.0946 	 24.0091 	 88.5226 	 
H 	 44.1152 	 24.2818 	 88.8727 	 
H 	 42.8016 	 22.9968 	 88.9052 	 
C 	 42.2076 	 25.0722 	 89.2018 	 
H 	 42.4779 	 26.0549 	 88.8185 	 
H 	 41.1565 	 24.9008 	 88.9857 	 
C 	 42.4548 	 25.1388 	 90.6819 	 
H 	 41.7414 	 25.8159 	 91.1722 	 
H 	 42.3921 	 24.1699 	 91.197 	 
H 	 43.4952 	 25.5655 	 90.9294 	 
S 	 45.2484 	 26.1218 	 82.9953 	 
C 	 44.7801 	 27.6295 	 82.2469 	 
C 	 43.6545 	 28.1679 	 82.7467 	 
C 	 43.1587 	 27.372 	 83.7978 	 
C 	 43.7303 	 26.1421 	 83.9491 	 
H 	 43.2295 	 29.1487 	 82.4815 	 
C 	 41.8401 	 27.7931 	 84.4399 	 
H 	 41.9588 	 28.8437 	 84.6786 	 
H 	 41.7735 	 27.1868 	 85.2946 	 
C 	 40.5742 	 27.5178 	 83.6392 	 
H 	 40.7025 	 26.4903 	 83.1653 	 
H 	 40.3936 	 28.111 	 82.7699 	 
C 	 39.2816 	 27.4825 	 84.3606 	 
H 	 38.5789 	 26.9417 	 83.7653 	 
H 	 39.0474 	 28.5548 	 84.5737 	 
H 	 39.4161 	 27.0113 	 85.3091 	 
H 	 42.6338 	 21.9587 	 86.3752 	 
H 	 45.3591 	 28.0501 	 81.4075 	 
