34

S 	 -103.228 	 48.9438 	 121.391 	 
C 	 -104.24 	 49.727 	 122.631 	 
C 	 -104.605 	 48.8131 	 123.547 	 
C 	 -104.114 	 47.5449 	 123.249 	 
C 	 -103.225 	 47.4499 	 122.198 	 
H 	 -104.299 	 46.6403 	 123.815 	 
C 	 -105.357 	 49.0528 	 124.838 	 
H 	 -106.114 	 48.3669 	 125.029 	 
H 	 -105.815 	 50.0673 	 124.742 	 
C 	 -104.531 	 49.2465 	 126.135 	 
H 	 -105.23 	 49.3288 	 126.963 	 
H 	 -104.131 	 48.2933 	 126.354 	 
C 	 -103.637 	 50.4428 	 126.111 	 
H 	 -102.96 	 50.3962 	 125.246 	 
H 	 -104.332 	 51.2841 	 126.243 	 
H 	 -102.933 	 50.4074 	 126.922 	 
S 	 -103.078 	 45.907 	 119.993 	 
C 	 -102.095 	 44.3424 	 120.066 	 
C 	 -101.746 	 43.9932 	 121.369 	 
C 	 -102.15 	 45.0684 	 122.305 	 
C 	 -102.669 	 46.1971 	 121.685 	 
H 	 -101.205 	 43.1104 	 121.57 	 
C 	 -101.872 	 44.8923 	 123.835 	 
H 	 -102.137 	 45.7881 	 124.436 	 
H 	 -100.794 	 44.9066 	 123.946 	 
C 	 -102.463 	 43.5717 	 124.423 	 
H 	 -102.116 	 43.4035 	 125.496 	 
H 	 -102.018 	 42.7095 	 123.883 	 
C 	 -104.018 	 43.418 	 124.312 	 
H 	 -104.507 	 44.1048 	 125.024 	 
H 	 -104.167 	 42.4277 	 124.67 	 
H 	 -104.406 	 43.4014 	 123.273 	 
H 	 -104.488 	 50.7741 	 122.601 	 
H 	 -101.945 	 43.6806 	 119.216 	 
