34

S 	 -2.91891 	 7.20244 	 85.1057 	 
C 	 -3.60054 	 6.20787 	 83.8013 	 
C 	 -4.07736 	 7.05132 	 82.7945 	 
C 	 -3.85226 	 8.4286 	 83.1803 	 
C 	 -3.24309 	 8.73177 	 84.3838 	 
H 	 -4.13958 	 9.26699 	 82.5462 	 
C 	 -4.77479 	 6.7418 	 81.4659 	 
H 	 -5.87285 	 6.91024 	 81.3803 	 
H 	 -4.7052 	 5.66221 	 81.3361 	 
C 	 -4.03661 	 7.36244 	 80.1836 	 
H 	 -4.55949 	 7.02161 	 79.2694 	 
H 	 -4.15716 	 8.43641 	 80.3048 	 
C 	 -2.57492 	 7.06802 	 79.9171 	 
H 	 -1.9615 	 7.59726 	 80.7028 	 
H 	 -2.40045 	 6.01864 	 80.2071 	 
H 	 -2.25756 	 7.31608 	 78.9407 	 
S 	 -1.22762 	 10.4497 	 85.3695 	 
C 	 -1.77338 	 12.0014 	 85.9161 	 
C 	 -3.10396 	 12.189 	 85.8719 	 
C 	 -3.81452 	 11.0614 	 85.3776 	 
C 	 -2.94822 	 10.039 	 85.0279 	 
H 	 -3.58674 	 13.0676 	 86.2513 	 
C 	 -5.31556 	 11.1712 	 85.1138 	 
H 	 -5.68371 	 10.2715 	 84.6359 	 
H 	 -5.41743 	 11.8676 	 84.2237 	 
C 	 -6.09635 	 11.6261 	 86.3309 	 
H 	 -5.7969 	 12.6377 	 86.7484 	 
H 	 -5.81294 	 10.9004 	 87.0578 	 
C 	 -7.68066 	 11.7246 	 86.0751 	 
H 	 -8.04036 	 12.734 	 85.8997 	 
H 	 -8.27317 	 11.3265 	 86.9229 	 
H 	 -7.9738 	 11.0995 	 85.2043 	 
H 	 -3.79659 	 5.17105 	 83.8581 	 
H 	 -1.29613 	 12.7831 	 86.39 	 
