34

S 	 -67.5685 	 52.3697 	 133.37 	 
C 	 -68.0047 	 53.8001 	 134.307 	 
C 	 -68.177 	 53.4716 	 135.699 	 
C 	 -68.0665 	 52.0489 	 135.904 	 
C 	 -67.6713 	 51.3239 	 134.765 	 
H 	 -68.0911 	 51.5697 	 136.84 	 
C 	 -68.4495 	 54.4813 	 136.781 	 
H 	 -67.5892 	 55.1062 	 136.892 	 
H 	 -68.5004 	 54.0393 	 137.759 	 
C 	 -69.7837 	 55.2542 	 136.636 	 
H 	 -69.6735 	 55.9074 	 135.743 	 
H 	 -70.593 	 54.5701 	 136.401 	 
C 	 -69.9743 	 56.239 	 137.798 	 
H 	 -70.4016 	 55.8526 	 138.714 	 
H 	 -69.0182 	 56.6436 	 138.237 	 
H 	 -70.545 	 57.0484 	 137.387 	 
S 	 -65.89 	 49.174 	 134.579 	 
C 	 -66.5378 	 47.5282 	 134.798 	 
C 	 -67.9282 	 47.5095 	 134.827 	 
C 	 -68.4373 	 48.8737 	 134.93 	 
C 	 -67.488 	 49.8644 	 134.772 	 
H 	 -68.3975 	 46.5933 	 134.906 	 
C 	 -69.907 	 49.1822 	 135.005 	 
H 	 -70.0819 	 50.1658 	 135.466 	 
H 	 -70.361 	 48.4556 	 135.68 	 
C 	 -70.5302 	 48.9617 	 133.626 	 
H 	 -70.7081 	 47.8909 	 133.527 	 
H 	 -69.8778 	 49.3099 	 132.8 	 
C 	 -71.9358 	 49.6867 	 133.487 	 
H 	 -71.9366 	 50.6509 	 133.945 	 
H 	 -72.7324 	 48.9868 	 133.657 	 
H 	 -72.1496 	 49.9311 	 132.457 	 
H 	 -68.3072 	 54.7347 	 133.86 	 
H 	 -65.9707 	 46.6253 	 134.677 	 
