34

S 	 52.9973 	 21.3341 	 91.9395 	 
C 	 51.7292 	 21.4179 	 90.7613 	 
C 	 51.3847 	 20.1979 	 90.2107 	 
C 	 52.2318 	 19.2285 	 90.7493 	 
C 	 53.1064 	 19.6181 	 91.7022 	 
H 	 52.2534 	 18.2485 	 90.3298 	 
C 	 50.2695 	 19.9334 	 89.2065 	 
H 	 50.6616 	 19.2001 	 88.5447 	 
H 	 50.1938 	 20.7057 	 88.5367 	 
C 	 48.9018 	 19.686 	 89.7515 	 
H 	 48.8229 	 18.7767 	 90.2312 	 
H 	 48.5252 	 20.528 	 90.3586 	 
C 	 47.7569 	 19.7072 	 88.6415 	 
H 	 46.7565 	 19.5308 	 88.9868 	 
H 	 47.8002 	 20.6146 	 88.0769 	 
H 	 48.0427 	 18.9589 	 87.7962 	 
S 	 55.6712 	 19.7271 	 92.5664 	 
C 	 56.206 	 18.3403 	 93.5108 	 
C 	 55.2694 	 17.2972 	 93.6033 	 
C 	 54.0449 	 17.6157 	 92.9332 	 
C 	 54.1469 	 18.829 	 92.3174 	 
H 	 55.4022 	 16.4163 	 94.2012 	 
C 	 52.8029 	 16.7978 	 92.9385 	 
H 	 51.8827 	 17.3745 	 92.826 	 
H 	 52.8707 	 16.5726 	 93.9969 	 
C 	 52.7499 	 15.5532 	 91.98 	 
H 	 53.7334 	 15.08 	 91.7641 	 
H 	 52.4741 	 15.9485 	 91.0415 	 
C 	 51.6601 	 14.4917 	 92.4306 	 
H 	 52.0056 	 14.0193 	 93.3484 	 
H 	 51.7086 	 13.7098 	 91.5608 	 
H 	 50.6452 	 14.7995 	 92.4665 	 
H 	 51.3182 	 22.3419 	 90.3955 	 
H 	 57.2218 	 18.1708 	 93.8886 	 
