34

S 	 -10.02 	 -5.40168 	 86.5053 	 
C 	 -9.77675 	 -4.86913 	 88.1794 	 
C 	 -10.2051 	 -5.87461 	 89.0859 	 
C 	 -10.4041 	 -7.0997 	 88.4638 	 
C 	 -10.3005 	 -6.99524 	 87.123 	 
H 	 -10.6916 	 -7.98708 	 89.0369 	 
C 	 -10.2102 	 -5.78735 	 90.6102 	 
H 	 -9.21712 	 -5.54251 	 90.9263 	 
H 	 -10.4336 	 -6.81674 	 90.9812 	 
C 	 -11.1334 	 -4.61086 	 91.0109 	 
H 	 -10.6652 	 -3.6125 	 90.6635 	 
H 	 -11.949 	 -4.71379 	 90.3827 	 
C 	 -11.502 	 -4.57441 	 92.4673 	 
H 	 -12.3963 	 -3.90436 	 92.6623 	 
H 	 -11.755 	 -5.52389 	 92.8722 	 
H 	 -10.6561 	 -4.14723 	 93.0556 	 
S 	 -12.1413 	 -7.91188 	 85.3004 	 
C 	 -11.8913 	 -9.42526 	 84.5416 	 
C 	 -10.6293 	 -9.96561 	 84.7556 	 
C 	 -9.95847 	 -9.24203 	 85.7838 	 
C 	 -10.6165 	 -8.07634 	 86.2023 	 
H 	 -10.3455 	 -10.8574 	 84.1732 	 
C 	 -8.52628 	 -9.56091 	 86.1179 	 
H 	 -8.52461 	 -9.2412 	 87.1988 	 
H 	 -7.92142 	 -8.82027 	 85.5745 	 
C 	 -8.08245 	 -11.0524 	 85.7871 	 
H 	 -7.97204 	 -11.2161 	 84.7144 	 
H 	 -8.88528 	 -11.7177 	 86.1673 	 
C 	 -6.78277 	 -11.4363 	 86.4125 	 
H 	 -6.47403 	 -12.442 	 86.1314 	 
H 	 -6.73788 	 -11.3618 	 87.474 	 
H 	 -5.88605 	 -10.881 	 86.0563 	 
H 	 -9.56675 	 -3.89655 	 88.5142 	 
H 	 -12.6232 	 -9.96005 	 83.9291 	 
