34

S 	 -55.4246 	 22.4816 	 86.5308 	 
C 	 -54.4802 	 21.2267 	 85.7348 	 
C 	 -53.1629 	 21.6013 	 85.6262 	 
C 	 -52.8401 	 22.8903 	 86.211 	 
C 	 -53.9505 	 23.5095 	 86.7605 	 
H 	 -51.8307 	 23.3299 	 86.2107 	 
C 	 -52.1225 	 20.8085 	 84.9413 	 
H 	 -51.8085 	 21.3318 	 84.0509 	 
H 	 -52.6048 	 19.9075 	 84.432 	 
C 	 -50.9147 	 20.4749 	 85.7536 	 
H 	 -50.3485 	 19.8647 	 85.0654 	 
H 	 -50.2996 	 21.3242 	 86.0176 	 
C 	 -51.224 	 19.6705 	 87.0024 	 
H 	 -51.824 	 20.3204 	 87.6251 	 
H 	 -51.7395 	 18.8233 	 86.7657 	 
H 	 -50.2851 	 19.4135 	 87.5823 	 
S 	 -55.163 	 25.9669 	 86.7007 	 
C 	 -54.9442 	 26.9977 	 88.0671 	 
C 	 -53.9874 	 26.6033 	 88.9012 	 
C 	 -53.3675 	 25.339 	 88.486 	 
C 	 -53.9904 	 24.8161 	 87.3702 	 
H 	 -53.7836 	 27.0989 	 89.8199 	 
C 	 -52.2281 	 24.6454 	 89.1813 	 
H 	 -51.3496 	 24.9122 	 88.5785 	 
H 	 -52.224 	 23.5844 	 88.9969 	 
C 	 -51.844 	 25.0267 	 90.6369 	 
H 	 -51.8632 	 26.0979 	 90.9222 	 
H 	 -50.8654 	 24.5123 	 90.7431 	 
C 	 -52.9956 	 24.4876 	 91.589 	 
H 	 -54.0052 	 24.9246 	 91.5247 	 
H 	 -52.7417 	 24.5604 	 92.7132 	 
H 	 -53.1444 	 23.3751 	 91.3925 	 
H 	 -54.8018 	 20.3668 	 85.2755 	 
H 	 -55.604 	 27.8396 	 88.2784 	 
