34

S 	 -41.3103 	 51.9198 	 107.334 	 
C 	 -39.6482 	 52.0492 	 107.608 	 
C 	 -39.1003 	 50.9603 	 108.295 	 
C 	 -40.006 	 49.9286 	 108.397 	 
C 	 -41.2405 	 50.2764 	 107.898 	 
H 	 -39.845 	 48.9246 	 108.681 	 
C 	 -37.7152 	 50.8334 	 108.817 	 
H 	 -37.0457 	 51.289 	 108.108 	 
H 	 -37.5157 	 49.7428 	 108.691 	 
C 	 -37.4137 	 51.0822 	 110.322 	 
H 	 -38.1982 	 50.5462 	 110.829 	 
H 	 -36.4019 	 50.7355 	 110.589 	 
C 	 -37.5222 	 52.5208 	 110.669 	 
H 	 -37.0519 	 53.2207 	 109.969 	 
H 	 -38.583 	 52.8175 	 110.946 	 
H 	 -37.0147 	 52.5882 	 111.624 	 
S 	 -43.8824 	 50.3854 	 108.267 	 
C 	 -44.8364 	 48.9816 	 108.317 	 
C 	 -44.1345 	 47.8821 	 107.852 	 
C 	 -42.7284 	 48.1367 	 107.883 	 
C 	 -42.4681 	 49.4783 	 108.02 	 
H 	 -44.6568 	 46.9106 	 107.758 	 
C 	 -41.6308 	 47.0788 	 107.54 	 
H 	 -42.0622 	 46.1125 	 107.684 	 
H 	 -40.8952 	 47.1319 	 108.346 	 
C 	 -41.2147 	 47.2067 	 106.072 	 
H 	 -40.7276 	 48.1389 	 106.04 	 
H 	 -41.9968 	 47.2429 	 105.341 	 
C 	 -40.138 	 46.2241 	 105.686 	 
H 	 -40.5362 	 45.209 	 105.841 	 
H 	 -39.3291 	 46.3838 	 106.351 	 
H 	 -39.8195 	 46.3882 	 104.598 	 
H 	 -39.0128 	 52.9091 	 107.451 	 
H 	 -45.9409 	 48.9594 	 108.33 	 
