34

S 	 -62.9134 	 54.4327 	 126.99 	 
C 	 -64.3982 	 54.2069 	 127.854 	 
C 	 -64.4149 	 54.8048 	 129.093 	 
C 	 -63.0851 	 55.2021 	 129.381 	 
C 	 -62.1549 	 55.0221 	 128.373 	 
H 	 -62.8625 	 55.6488 	 130.323 	 
C 	 -65.4239 	 54.6806 	 130.197 	 
H 	 -66.3706 	 55.1253 	 129.992 	 
H 	 -65.1438 	 55.1818 	 131.085 	 
C 	 -65.6341 	 53.1495 	 130.655 	 
H 	 -65.9588 	 52.489 	 129.798 	 
H 	 -64.701 	 52.7336 	 130.923 	 
C 	 -66.7376 	 52.9266 	 131.771 	 
H 	 -67.67 	 53.3843 	 131.599 	 
H 	 -66.8687 	 51.8366 	 131.756 	 
H 	 -66.477 	 53.3521 	 132.756 	 
S 	 -60.2577 	 56.031 	 130.018 	 
C 	 -58.7895 	 56.512 	 129.185 	 
C 	 -58.6138 	 55.8517 	 128.058 	 
C 	 -59.7723 	 55.331 	 127.489 	 
C 	 -60.7723 	 55.3895 	 128.414 	 
H 	 -57.6968 	 55.9918 	 127.563 	 
C 	 -59.848 	 54.8559 	 126.026 	 
H 	 -60.5729 	 54.0238 	 125.974 	 
H 	 -58.9106 	 54.2839 	 125.821 	 
C 	 -60.0668 	 55.957 	 125.007 	 
H 	 -59.1921 	 56.6163 	 125.098 	 
H 	 -60.9721 	 56.5733 	 125.19 	 
C 	 -60.0771 	 55.5574 	 123.55 	 
H 	 -60.9009 	 54.8158 	 123.338 	 
H 	 -59.0809 	 55.1134 	 123.244 	 
H 	 -60.3276 	 56.2702 	 122.763 	 
H 	 -65.2775 	 53.6495 	 127.34 	 
H 	 -58.0743 	 57.1351 	 129.683 	 
