34

S 	 2.03951 	 -21.5093 	 56.7481 	 
C 	 0.817102 	 -22.7711 	 56.6434 	 
C 	 1.43677 	 -23.9658 	 56.4089 	 
C 	 2.84691 	 -23.8648 	 56.1165 	 
C 	 3.35136 	 -22.5845 	 56.3 	 
H 	 3.57776 	 -24.534 	 55.7932 	 
C 	 0.723578 	 -25.3368 	 56.1347 	 
H 	 0.536185 	 -25.3457 	 55.0941 	 
H 	 -0.273986 	 -25.2373 	 56.62 	 
C 	 1.48547 	 -26.6323 	 56.5187 	 
H 	 2.52824 	 -26.7927 	 56.1208 	 
H 	 1.75699 	 -26.6172 	 57.6277 	 
C 	 0.490831 	 -27.7354 	 56.3677 	 
H 	 1.00822 	 -28.7305 	 56.4925 	 
H 	 -0.214816 	 -27.639 	 57.1243 	 
H 	 0.0395228 	 -27.7989 	 55.3835 	 
S 	 4.99588 	 -20.8516 	 55.0315 	 
C 	 6.74013 	 -20.7633 	 55.4255 	 
C 	 7.06056 	 -21.8437 	 56.1731 	 
C 	 5.9328 	 -22.6827 	 56.4471 	 
C 	 4.71794 	 -22.2106 	 56.0784 	 
H 	 8.04714 	 -21.9542 	 56.5174 	 
C 	 6.09941 	 -23.9413 	 57.2724 	 
H 	 5.16329 	 -24.5078 	 57.1476 	 
H 	 6.15737 	 -23.613 	 58.3658 	 
C 	 7.32731 	 -24.7817 	 56.8595 	 
H 	 7.27366 	 -25.639 	 57.5933 	 
H 	 8.18399 	 -24.2492 	 57.1053 	 
C 	 7.3769 	 -25.2724 	 55.3874 	 
H 	 8.21873 	 -24.8327 	 55.0072 	 
H 	 6.43849 	 -24.9293 	 54.9136 	 
H 	 7.39336 	 -26.3752 	 55.284 	 
H 	 -0.262747 	 -22.7248 	 56.6946 	 
H 	 7.40869 	 -19.9346 	 55.1232 	 
