34

S 	 7.84779 	 -6.61977 	 85.3439 	 
C 	 8.06712 	 -5.14513 	 84.4541 	 
C 	 7.29602 	 -4.17648 	 84.9318 	 
C 	 6.31604 	 -4.60033 	 85.8458 	 
C 	 6.41628 	 -5.95483 	 86.1449 	 
H 	 5.43805 	 -4.05345 	 86.2441 	 
C 	 7.35913 	 -2.74365 	 84.3901 	 
H 	 6.81732 	 -2.77286 	 83.3855 	 
H 	 8.3945 	 -2.593 	 83.9891 	 
C 	 6.98556 	 -1.58255 	 85.3094 	 
H 	 7.04736 	 -0.601497 	 84.7787 	 
H 	 5.96918 	 -1.64104 	 85.6676 	 
C 	 7.87927 	 -1.46286 	 86.5017 	 
H 	 8.89134 	 -1.09479 	 86.2754 	 
H 	 7.43664 	 -0.73945 	 87.2285 	 
H 	 7.88541 	 -2.4364 	 86.9808 	 
S 	 5.23854 	 -8.42502 	 86.0996 	 
C 	 4.35371 	 -8.79882 	 87.6245 	 
C 	 4.06331 	 -7.69435 	 88.3405 	 
C 	 4.80055 	 -6.51603 	 88.019 	 
C 	 5.4861 	 -6.78888 	 86.8798 	 
H 	 3.29544 	 -7.73273 	 89.101 	 
C 	 4.70343 	 -5.21777 	 88.8187 	 
H 	 3.63987 	 -5.08391 	 89.095 	 
H 	 4.98119 	 -4.39769 	 88.1982 	 
C 	 5.62886 	 -5.19737 	 90.0274 	 
H 	 5.49341 	 -4.2809 	 90.6644 	 
H 	 6.69237 	 -5.18711 	 89.744 	 
C 	 5.4197 	 -6.30059 	 91.062 	 
H 	 4.38472 	 -6.35552 	 91.1849 	 
H 	 5.81717 	 -5.87047 	 92.0397 	 
H 	 5.83746 	 -7.28815 	 90.857 	 
H 	 9.04548 	 -5.04491 	 83.9698 	 
H 	 4.10829 	 -9.78426 	 88.0079 	 
