34

S 	 -46.0183 	 23.4251 	 87.3863 	 
C 	 -45.3409 	 23.5577 	 88.9694 	 
C 	 -44.0123 	 23.2912 	 89.0012 	 
C 	 -43.4732 	 23.0088 	 87.7187 	 
C 	 -44.4423 	 22.94 	 86.7568 	 
H 	 -42.4524 	 22.7978 	 87.3929 	 
C 	 -43.1519 	 23.4509 	 90.2191 	 
H 	 -42.8433 	 22.4429 	 90.3676 	 
H 	 -43.6896 	 23.9224 	 91.0283 	 
C 	 -41.8737 	 24.3059 	 90.0456 	 
H 	 -41.375 	 24.3654 	 90.9701 	 
H 	 -41.274 	 23.7493 	 89.3656 	 
C 	 -42.0235 	 25.7474 	 89.6189 	 
H 	 -41.0242 	 26.0557 	 89.3846 	 
H 	 -42.4634 	 25.8442 	 88.6731 	 
H 	 -42.708 	 26.3978 	 90.2335 	 
S 	 -44.6451 	 23.5015 	 84.0711 	 
C 	 -44.2713 	 22.2356 	 82.987 	 
C 	 -43.9112 	 21.0642 	 83.6162 	 
C 	 -43.913 	 21.217 	 85.0147 	 
C 	 -44.2966 	 22.4448 	 85.4355 	 
H 	 -43.6432 	 20.1791 	 83.0985 	 
C 	 -43.444 	 20.13 	 85.9408 	 
H 	 -42.6762 	 20.5299 	 86.5569 	 
H 	 -42.9246 	 19.3488 	 85.3833 	 
C 	 -44.5716 	 19.4888 	 86.716 	 
H 	 -45.2836 	 18.9296 	 86.0528 	 
H 	 -45.0645 	 20.265 	 87.2909 	 
C 	 -43.9251 	 18.418 	 87.6431 	 
H 	 -43.1412 	 18.762 	 88.31 	 
H 	 -43.3244 	 17.7409 	 87.068 	 
H 	 -44.6294 	 17.8763 	 88.2822 	 
H 	 -45.9718 	 23.8455 	 89.7803 	 
H 	 -44.3968 	 22.3747 	 81.9286 	 
