34

S 	 -49.905 	 63.8265 	 135.547 	 
C 	 -49.2936 	 62.5436 	 136.552 	 
C 	 -49.1989 	 63.0651 	 137.852 	 
C 	 -49.6564 	 64.3726 	 137.995 	 
C 	 -50.0003 	 64.9768 	 136.789 	 
H 	 -49.7742 	 64.9295 	 138.916 	 
C 	 -48.6982 	 62.3072 	 139.043 	 
H 	 -48.4476 	 61.321 	 138.748 	 
H 	 -49.6527 	 62.0429 	 139.617 	 
C 	 -47.5381 	 62.9043 	 139.87 	 
H 	 -46.5272 	 62.9949 	 139.328 	 
H 	 -47.7766 	 63.9313 	 140.11 	 
C 	 -47.3707 	 62.09 	 141.143 	 
H 	 -46.7322 	 61.17 	 140.995 	 
H 	 -46.813 	 62.7187 	 141.797 	 
H 	 -48.2654 	 61.796 	 141.708 	 
S 	 -49.7459 	 67.2727 	 135.409 	 
C 	 -50.5811 	 68.6538 	 136.042 	 
C 	 -51.656 	 68.3779 	 136.886 	 
C 	 -51.5836 	 67.0221 	 137.182 	 
C 	 -50.5398 	 66.3281 	 136.572 	 
H 	 -52.3049 	 69.1415 	 137.357 	 
C 	 -52.6856 	 66.3554 	 138.023 	 
H 	 -52.9003 	 67.0307 	 138.914 	 
H 	 -52.3411 	 65.3681 	 138.391 	 
C 	 -53.9331 	 66.0909 	 137.193 	 
H 	 -54.5086 	 65.2538 	 137.698 	 
H 	 -53.7529 	 65.7349 	 136.207 	 
C 	 -54.7971 	 67.2918 	 137.036 	 
H 	 -55.6012 	 67.2641 	 136.242 	 
H 	 -54.2626 	 68.2651 	 136.776 	 
H 	 -55.3324 	 67.4913 	 137.838 	 
H 	 -49.0262 	 61.552 	 136.284 	 
H 	 -50.3021 	 69.678 	 135.809 	 
