34

S 	 60.1546 	 4.32103 	 76.4468 	 
C 	 59.0714 	 4.92514 	 77.7275 	 
C 	 58.0317 	 5.65588 	 77.2374 	 
C 	 57.9594 	 5.529 	 75.7769 	 
C 	 59.0254 	 4.7871 	 75.2286 	 
H 	 57.1013 	 5.89922 	 75.2059 	 
C 	 57.1201 	 6.53401 	 78.1119 	 
H 	 57.4285 	 6.23827 	 79.1788 	 
H 	 56.0755 	 6.1791 	 78.0123 	 
C 	 57.2288 	 8.08321 	 77.938 	 
H 	 58.1795 	 8.43361 	 78.1015 	 
H 	 57.2189 	 8.29745 	 76.845 	 
C 	 56.2267 	 8.88772 	 78.79 	 
H 	 55.1629 	 8.74109 	 78.4715 	 
H 	 56.3645 	 8.64335 	 79.8109 	 
H 	 56.4357 	 10.0153 	 78.7727 	 
S 	 59.3988 	 2.74155 	 73.4569 	 
C 	 59.4862 	 3.04984 	 71.7649 	 
C 	 59.3121 	 4.35227 	 71.5281 	 
C 	 59.0826 	 5.22085 	 72.6578 	 
C 	 59.2288 	 4.51691 	 73.8494 	 
H 	 59.2035 	 4.63562 	 70.4942 	 
C 	 58.6916 	 6.70039 	 72.5364 	 
H 	 58.4885 	 7.16585 	 73.4131 	 
H 	 57.8211 	 6.81295 	 71.8659 	 
C 	 59.8387 	 7.53318 	 71.78 	 
H 	 59.9943 	 7.05059 	 70.8448 	 
H 	 60.8097 	 7.41316 	 72.2954 	 
C 	 59.6052 	 8.97756 	 71.5978 	 
H 	 58.5972 	 9.23213 	 71.3576 	 
H 	 60.2665 	 9.24161 	 70.7803 	 
H 	 59.9106 	 9.58234 	 72.4203 	 
H 	 59.4456 	 5.02432 	 78.7077 	 
H 	 59.5753 	 2.23289 	 71.0727 	 
