34

S 	 -24.0387 	 -7.98748 	 84.8998 	 
C 	 -24.1482 	 -9.60032 	 84.4308 	 
C 	 -23.0128 	 -10.3174 	 84.6798 	 
C 	 -21.9995 	 -9.51676 	 85.3569 	 
C 	 -22.4176 	 -8.27799 	 85.5694 	 
H 	 -20.9772 	 -9.83437 	 85.6811 	 
C 	 -22.7925 	 -11.7753 	 84.2483 	 
H 	 -21.7557 	 -12.1331 	 84.4983 	 
H 	 -22.9387 	 -11.8351 	 83.1638 	 
C 	 -23.8358 	 -12.7904 	 84.8333 	 
H 	 -24.7861 	 -12.6523 	 84.2064 	 
H 	 -23.558 	 -13.7726 	 84.6056 	 
C 	 -24.1644 	 -12.4341 	 86.2821 	 
H 	 -23.3273 	 -12.0463 	 86.8315 	 
H 	 -24.8947 	 -11.6185 	 86.2791 	 
H 	 -24.5483 	 -13.3565 	 86.7455 	 
S 	 -21.2305 	 -7.08136 	 87.7034 	 
C 	 -20.383 	 -5.59247 	 87.5605 	 
C 	 -20.2942 	 -5.20204 	 86.247 	 
C 	 -20.9617 	 -6.0851 	 85.3515 	 
C 	 -21.6059 	 -7.14338 	 86.0574 	 
H 	 -19.6536 	 -4.36874 	 86.059 	 
C 	 -21.222 	 -5.85115 	 83.8705 	 
H 	 -21.0167 	 -4.81132 	 83.7346 	 
H 	 -22.2854 	 -5.94717 	 83.5841 	 
C 	 -20.6179 	 -6.76719 	 82.8794 	 
H 	 -20.9358 	 -7.80561 	 83.0182 	 
H 	 -19.5673 	 -6.65856 	 82.9827 	 
C 	 -21.0724 	 -6.53684 	 81.4265 	 
H 	 -22.0503 	 -6.25931 	 81.4375 	 
H 	 -21.0394 	 -7.46454 	 80.9587 	 
H 	 -20.4453 	 -5.83286 	 80.8692 	 
H 	 -24.9739 	 -10.029 	 83.8948 	 
H 	 -19.9496 	 -5.0072 	 88.3989 	 
