34

S 	 15.5168 	 8.20498 	 88.2587 	 
C 	 15.8508 	 6.54711 	 88.35 	 
C 	 14.8034 	 5.73426 	 88.0928 	 
C 	 13.6238 	 6.49822 	 87.8299 	 
C 	 13.8366 	 7.86966 	 87.9884 	 
H 	 12.6476 	 6.10475 	 87.5408 	 
C 	 14.9178 	 4.22923 	 87.9786 	 
H 	 15.628 	 4.10972 	 87.1475 	 
H 	 13.9499 	 3.88531 	 87.5054 	 
C 	 15.4521 	 3.49034 	 89.1826 	 
H 	 16.32 	 3.95098 	 89.4837 	 
H 	 14.6957 	 3.42468 	 90.0225 	 
C 	 15.6599 	 1.98254 	 88.8757 	 
H 	 16.1254 	 1.5621 	 89.7913 	 
H 	 14.7557 	 1.38414 	 88.5121 	 
H 	 16.364 	 1.8613 	 88.045 	 
S 	 12.8723 	 9.94368 	 86.5146 	 
C 	 11.4983 	 10.8988 	 87.1164 	 
C 	 10.8013 	 10.2309 	 88.1267 	 
C 	 11.5591 	 9.03347 	 88.5049 	 
C 	 12.8221 	 8.93498 	 87.8963 	 
H 	 9.84745 	 10.4424 	 88.4809 	 
C 	 11.0846 	 8.02199 	 89.48 	 
H 	 10.9478 	 7.08791 	 88.9246 	 
H 	 10.0519 	 8.21068 	 89.7405 	 
C 	 11.9363 	 7.78166 	 90.7708 	 
H 	 11.7578 	 8.6814 	 91.3465 	 
H 	 13.025 	 7.74615 	 90.5373 	 
C 	 11.4501 	 6.54743 	 91.6501 	 
H 	 11.9348 	 6.52341 	 92.6684 	 
H 	 11.5338 	 5.56184 	 91.1378 	 
H 	 10.4323 	 6.79198 	 91.9714 	 
H 	 16.8288 	 6.17111 	 88.5902 	 
H 	 11.0649 	 11.7102 	 86.5526 	 
