34

S 	 45.6193 	 4.47307 	 86.5658 	 
C 	 45.9173 	 6.15191 	 87.0468 	 
C 	 47.235 	 6.46071 	 86.8023 	 
C 	 47.9463 	 5.39124 	 86.1094 	 
C 	 47.1918 	 4.30778 	 85.7785 	 
H 	 49.0144 	 5.52126 	 85.8176 	 
C 	 47.9178 	 7.74609 	 87.1431 	 
H 	 48.732 	 7.81808 	 86.4382 	 
H 	 48.3263 	 7.71894 	 88.1177 	 
C 	 47.239 	 9.09107 	 87.0498 	 
H 	 46.7607 	 9.17828 	 86.0063 	 
H 	 46.3866 	 9.24807 	 87.7122 	 
C 	 48.2661 	 10.1847 	 87.3518 	 
H 	 49.1777 	 10.1301 	 86.7461 	 
H 	 47.8579 	 11.1508 	 87.1524 	 
H 	 48.5355 	 10.2648 	 88.4511 	 
S 	 46.5026 	 2.57685 	 83.8244 	 
C 	 47.3953 	 1.14095 	 83.5488 	 
C 	 48.5126 	 1.0641 	 84.4028 	 
C 	 48.6922 	 2.2552 	 85.2091 	 
C 	 47.595 	 3.10123 	 85.0987 	 
H 	 49.2657 	 0.190163 	 84.4406 	 
C 	 49.8149 	 2.50227 	 86.1875 	 
H 	 50.0522 	 1.51263 	 86.6857 	 
H 	 49.5697 	 3.13213 	 87.0295 	 
C 	 51.1296 	 3.12759 	 85.5885 	 
H 	 50.9366 	 4.07647 	 85.0492 	 
H 	 51.6117 	 2.48778 	 84.7947 	 
C 	 52.2282 	 3.46831 	 86.6698 	 
H 	 51.6969 	 3.83492 	 87.5818 	 
H 	 52.8252 	 4.2734 	 86.2498 	 
H 	 52.7014 	 2.59154 	 86.989 	 
H 	 45.2524 	 6.7929 	 87.4825 	 
H 	 47.119 	 0.427096 	 82.9104 	 
