34

S 	 12.1745 	 -7.45497 	 86.2874 	 
C 	 13.197 	 -6.7021 	 87.5404 	 
C 	 12.7423 	 -7.18 	 88.7732 	 
C 	 11.3749 	 -7.65798 	 88.6385 	 
C 	 10.8872 	 -7.78413 	 87.3569 	 
H 	 10.6203 	 -7.84771 	 89.5134 	 
C 	 13.4213 	 -6.91706 	 90.1323 	 
H 	 14.3812 	 -6.45427 	 89.938 	 
H 	 13.638 	 -7.88196 	 90.5358 	 
C 	 12.6803 	 -5.9854 	 91.0911 	 
H 	 12.8282 	 -4.93474 	 90.8751 	 
H 	 11.5662 	 -6.19095 	 90.9096 	 
C 	 12.9623 	 -6.21015 	 92.559 	 
H 	 12.477 	 -5.5848 	 93.2987 	 
H 	 12.9075 	 -7.2454 	 92.8643 	 
H 	 14.0178 	 -5.98607 	 92.6264 	 
S 	 9.52192 	 -10.1453 	 86.8757 	 
C 	 7.82022 	 -10.0465 	 86.4716 	 
C 	 7.30653 	 -8.78038 	 86.6523 	 
C 	 8.33404 	 -7.81741 	 86.9563 	 
C 	 9.58837 	 -8.39105 	 86.9785 	 
H 	 6.32992 	 -8.47043 	 86.4677 	 
C 	 8.02024 	 -6.38367 	 87.1212 	 
H 	 8.07303 	 -5.97124 	 86.1184 	 
H 	 8.83243 	 -6.06211 	 87.8202 	 
C 	 6.573 	 -6.097 	 87.7496 	 
H 	 6.37684 	 -6.70995 	 88.6419 	 
H 	 5.91095 	 -6.45976 	 87.0274 	 
C 	 6.36455 	 -4.72221 	 88.1784 	 
H 	 6.60178 	 -4.04462 	 87.3213 	 
H 	 7.02573 	 -4.39642 	 88.9966 	 
H 	 5.35648 	 -4.54917 	 88.5503 	 
H 	 14.2903 	 -6.51752 	 87.3627 	 
H 	 7.26332 	 -10.8288 	 86.0496 	 
