34

S 	 28.8525 	 0.805768 	 71.1192 	 
C 	 28.574 	 2.21244 	 71.9648 	 
C 	 29.2681 	 2.21909 	 73.1343 	 
C 	 29.9922 	 1.03071 	 73.412 	 
C 	 29.9446 	 0.21812 	 72.329 	 
H 	 30.449 	 0.809433 	 74.3598 	 
C 	 29.0694 	 3.27363 	 74.1971 	 
H 	 29.3653 	 2.85257 	 75.1954 	 
H 	 27.9732 	 3.37057 	 74.3504 	 
C 	 29.7122 	 4.66943 	 73.8599 	 
H 	 30.8086 	 4.58801 	 73.6729 	 
H 	 29.2539 	 4.99405 	 72.884 	 
C 	 29.4558 	 5.81984 	 74.8209 	 
H 	 28.3696 	 6.02988 	 74.8425 	 
H 	 29.8646 	 5.45232 	 75.7601 	 
H 	 29.9724 	 6.71207 	 74.5506 	 
S 	 29.517 	 -2.48995 	 71.6371 	 
C 	 30.9037 	 -3.5156 	 71.5426 	 
C 	 32.0687 	 -2.80258 	 71.6194 	 
C 	 31.8976 	 -1.4014 	 71.9405 	 
C 	 30.5738 	 -1.08939 	 72.1351 	 
H 	 33.0524 	 -3.26567 	 71.4761 	 
C 	 33.0498 	 -0.399415 	 71.9926 	 
H 	 33.9159 	 -0.777843 	 72.6229 	 
H 	 32.8316 	 0.382491 	 72.7143 	 
C 	 33.5451 	 0.129774 	 70.6103 	 
H 	 32.649 	 0.447503 	 69.9864 	 
H 	 33.892 	 -0.726638 	 70.0305 	 
C 	 34.6492 	 1.25329 	 70.8193 	 
H 	 34.9106 	 1.69202 	 69.8711 	 
H 	 35.5143 	 0.801835 	 71.1854 	 
H 	 34.4053 	 2.05109 	 71.4749 	 
H 	 28.0622 	 3.11742 	 71.5793 	 
H 	 30.9285 	 -4.5362 	 71.234 	 
