34

S 	 41.8816 	 25.3514 	 101.655 	 
C 	 41.4522 	 25.9017 	 99.9723 	 
C 	 41.6086 	 24.8982 	 99.0642 	 
C 	 42.2389 	 23.7862 	 99.683 	 
C 	 42.3787 	 23.7859 	 101.106 	 
H 	 42.5792 	 22.9297 	 99.158 	 
C 	 41.1223 	 24.9648 	 97.6982 	 
H 	 41.8942 	 24.6443 	 96.9966 	 
H 	 40.9039 	 26.0527 	 97.498 	 
C 	 39.8325 	 24.1217 	 97.4353 	 
H 	 40.1167 	 23.0947 	 97.4674 	 
H 	 39.1493 	 24.2501 	 98.2938 	 
C 	 39.0533 	 24.5242 	 96.249 	 
H 	 38.3288 	 23.741 	 96.1683 	 
H 	 38.6438 	 25.4956 	 96.3549 	 
H 	 39.6082 	 24.491 	 95.296 	 
S 	 43.9292 	 23.5215 	 103.322 	 
C 	 44.2276 	 21.8795 	 103.966 	 
C 	 43.446 	 20.9601 	 103.322 	 
C 	 42.6087 	 21.4853 	 102.242 	 
C 	 42.8506 	 22.8437 	 102.092 	 
H 	 43.3504 	 19.9184 	 103.654 	 
C 	 41.5355 	 20.6076 	 101.614 	 
H 	 40.9855 	 21.1367 	 100.83 	 
H 	 40.6842 	 20.4628 	 102.326 	 
C 	 41.8528 	 19.1291 	 101.197 	 
H 	 40.8841 	 18.6868 	 100.996 	 
H 	 42.2099 	 18.6072 	 102.032 	 
C 	 42.8415 	 19.0404 	 99.9148 	 
H 	 42.5419 	 19.9085 	 99.3514 	 
H 	 42.7012 	 18.203 	 99.2128 	 
H 	 43.9031 	 19.1987 	 100.204 	 
H 	 40.8891 	 26.8217 	 99.8357 	 
H 	 44.9618 	 21.7264 	 104.747 	 
