34

S 	 -58.0523 	 18.8773 	 85.4087 	 
C 	 -56.3493 	 19.318 	 85.0822 	 
C 	 -55.9787 	 20.4088 	 85.8124 	 
C 	 -57.0316 	 20.9705 	 86.5679 	 
C 	 -58.2058 	 20.1757 	 86.5663 	 
H 	 -56.9419 	 21.7971 	 87.2806 	 
C 	 -54.5482 	 20.97 	 85.99 	 
H 	 -53.8687 	 20.1102 	 85.7951 	 
H 	 -54.3448 	 21.3341 	 86.9881 	 
C 	 -54.1375 	 22.0787 	 84.9475 	 
H 	 -53.1233 	 22.437 	 85.2081 	 
H 	 -53.9615 	 21.5532 	 84.0025 	 
C 	 -55.2182 	 23.0421 	 84.5303 	 
H 	 -56.1662 	 22.6223 	 84.3102 	 
H 	 -55.3441 	 23.8637 	 85.33 	 
H 	 -54.9208 	 23.6458 	 83.6686 	 
S 	 -60.8325 	 20.1046 	 86.9906 	 
C 	 -61.569 	 20.5583 	 88.5972 	 
C 	 -60.5408 	 20.7168 	 89.549 	 
C 	 -59.2335 	 20.5496 	 88.9687 	 
C 	 -59.2222 	 20.2161 	 87.6058 	 
H 	 -60.7834 	 20.9163 	 90.6085 	 
C 	 -58.0053 	 20.6182 	 89.8132 	 
H 	 -58.1349 	 21.5666 	 90.406 	 
H 	 -57.0935 	 20.73 	 89.2863 	 
C 	 -57.8695 	 19.493 	 90.804 	 
H 	 -58.046 	 18.5174 	 90.2775 	 
H 	 -58.6383 	 19.6545 	 91.5277 	 
C 	 -56.65 	 19.5384 	 91.7138 	 
H 	 -56.6893 	 18.5167 	 92.1047 	 
H 	 -56.8378 	 20.0914 	 92.5589 	 
H 	 -55.7216 	 19.716 	 91.1784 	 
H 	 -55.6382 	 18.7642 	 84.5168 	 
H 	 -62.6356 	 20.6668 	 88.8508 	 
