34

S 	 67.4241 	 29.4994 	 71.7446 	 
C 	 67.3069 	 29.6868 	 69.9872 	 
C 	 68.56 	 29.3809 	 69.4042 	 
C 	 69.558 	 28.9944 	 70.3659 	 
C 	 69.1076 	 29.0327 	 71.7032 	 
H 	 70.4976 	 28.6135 	 70.0602 	 
C 	 68.8006 	 29.1547 	 67.9176 	 
H 	 69.8334 	 29.1061 	 67.7105 	 
H 	 68.4652 	 30.0341 	 67.3896 	 
C 	 68.2095 	 27.868 	 67.2893 	 
H 	 67.1347 	 27.8344 	 67.2528 	 
H 	 68.442 	 27.9452 	 66.2867 	 
C 	 68.7173 	 26.526 	 67.8974 	 
H 	 69.8153 	 26.3865 	 67.5774 	 
H 	 68.7996 	 26.6695 	 68.9666 	 
H 	 68.1953 	 25.6256 	 67.6103 	 
S 	 71.407 	 29.3571 	 73.325 	 
C 	 71.516 	 28.5216 	 74.7638 	 
C 	 70.5173 	 27.6134 	 74.9205 	 
C 	 69.5236 	 27.6669 	 73.8579 	 
C 	 69.8891 	 28.6407 	 72.8638 	 
H 	 70.4952 	 26.8186 	 75.6561 	 
C 	 68.3078 	 26.7288 	 73.8701 	 
H 	 67.5153 	 27.0303 	 73.1979 	 
H 	 67.8994 	 26.7723 	 74.8649 	 
C 	 68.5748 	 25.2101 	 73.6453 	 
H 	 67.6908 	 24.5287 	 73.5787 	 
H 	 69.1435 	 24.8918 	 74.5208 	 
C 	 69.4861 	 25.0423 	 72.4793 	 
H 	 69.3418 	 24.0391 	 72.0465 	 
H 	 70.5105 	 25.2113 	 72.6143 	 
H 	 69.2398 	 25.7212 	 71.6608 	 
H 	 66.376 	 29.7952 	 69.4072 	 
H 	 72.4288 	 28.5184 	 75.3629 	 
