34

S 	 -50.2353 	 34.8778 	 94.662 	 
C 	 -51.8053 	 34.2123 	 94.5272 	 
C 	 -52.7822 	 35.0562 	 95.0156 	 
C 	 -52.1996 	 36.2318 	 95.594 	 
C 	 -50.8298 	 36.1979 	 95.589 	 
H 	 -52.7256 	 36.9373 	 96.1028 	 
C 	 -54.2713 	 34.865 	 95.0705 	 
H 	 -54.5981 	 34.3227 	 94.1484 	 
H 	 -54.6278 	 35.8894 	 95.1656 	 
C 	 -54.654 	 33.9621 	 96.3748 	 
H 	 -55.7119 	 33.6842 	 96.4301 	 
H 	 -54.1223 	 33.0231 	 96.2616 	 
C 	 -54.245 	 34.54 	 97.742 	 
H 	 -53.2404 	 34.3599 	 98.0675 	 
H 	 -54.5446 	 35.6338 	 97.8425 	 
H 	 -54.9613 	 33.9723 	 98.3518 	 
S 	 -48.8044 	 38.0011 	 95.2325 	 
C 	 -48.2273 	 38.9045 	 96.5739 	 
C 	 -49.012 	 38.6751 	 97.7274 	 
C 	 -49.9811 	 37.6471 	 97.588 	 
C 	 -49.9683 	 37.1733 	 96.2468 	 
H 	 -48.7539 	 39.2583 	 98.6323 	 
C 	 -50.8684 	 37.2434 	 98.8017 	 
H 	 -50.2373 	 36.6934 	 99.5237 	 
H 	 -51.7128 	 36.6522 	 98.4552 	 
C 	 -51.3521 	 38.443 	 99.6079 	 
H 	 -50.4699 	 38.9681 	 100.016 	 
H 	 -51.7927 	 38.0156 	 100.479 	 
C 	 -52.3369 	 39.4857 	 98.8993 	 
H 	 -51.8138 	 40.0284 	 98.0817 	 
H 	 -52.5685 	 40.3036 	 99.5422 	 
H 	 -53.2257 	 39.0907 	 98.4012 	 
H 	 -51.8723 	 33.2609 	 94.0659 	 
H 	 -47.4093 	 39.591 	 96.4276 	 
