34

S 	 13.1624 	 -12.8816 	 77.317 	 
C 	 13.9883 	 -11.9722 	 78.6435 	 
C 	 15.3626 	 -12.0361 	 78.4164 	 
C 	 15.7295 	 -12.6207 	 77.1937 	 
C 	 14.6988 	 -13.2155 	 76.5153 	 
H 	 16.6473 	 -12.6367 	 76.6777 	 
C 	 16.3339 	 -11.2434 	 79.3129 	 
H 	 16.1093 	 -11.6029 	 80.3059 	 
H 	 16.0232 	 -10.2197 	 79.3381 	 
C 	 17.8509 	 -11.2376 	 79.0572 	 
H 	 18.3664 	 -12.2387 	 79.0855 	 
H 	 18.007 	 -11.0159 	 77.9533 	 
C 	 18.6855 	 -10.3079 	 79.9005 	 
H 	 18.2951 	 -9.26392 	 79.7689 	 
H 	 18.3984 	 -10.5948 	 80.9607 	 
H 	 19.7023 	 -10.3615 	 79.624 	 
S 	 14.7696 	 -15.7715 	 75.4345 	 
C 	 15.5145 	 -15.9746 	 73.8463 	 
C 	 15.7843 	 -14.7442 	 73.244 	 
C 	 15.4529 	 -13.6296 	 74.1116 	 
C 	 14.9108 	 -14.0166 	 75.3373 	 
H 	 16.2558 	 -14.6573 	 72.2437 	 
C 	 15.5594 	 -12.2095 	 73.6496 	 
H 	 16.1721 	 -12.2245 	 72.7472 	 
H 	 16.0329 	 -11.5068 	 74.3809 	 
C 	 14.2939 	 -11.6259 	 73.2652 	 
H 	 13.6593 	 -11.5198 	 74.1372 	 
H 	 13.8188 	 -12.338 	 72.6018 	 
C 	 14.4496 	 -10.4233 	 72.3691 	 
H 	 15.0515 	 -9.66007 	 72.7902 	 
H 	 13.4968 	 -9.89544 	 72.2701 	 
H 	 14.7208 	 -10.7916 	 71.3273 	 
H 	 13.5894 	 -11.7092 	 79.559 	 
H 	 15.8696 	 -16.8066 	 73.2861 	 
