34

S 	 44.4916 	 25.3796 	 91.6457 	 
C 	 45.4699 	 24.2987 	 92.5673 	 
C 	 44.697 	 23.2559 	 93.0351 	 
C 	 43.353 	 23.2512 	 92.466 	 
C 	 43.1388 	 24.2591 	 91.5515 	 
H 	 42.5224 	 22.5791 	 92.6397 	 
C 	 45.1634 	 22.2664 	 94.1193 	 
H 	 46.1999 	 22.6895 	 94.4519 	 
H 	 45.3588 	 21.3644 	 93.548 	 
C 	 44.2022 	 22.137 	 95.2949 	 
H 	 44.2077 	 23.1859 	 95.5937 	 
H 	 43.1495 	 21.9194 	 95.0024 	 
C 	 44.707 	 21.3872 	 96.494 	 
H 	 44.6506 	 20.3869 	 96.0473 	 
H 	 45.7456 	 21.5026 	 96.7334 	 
H 	 44.0565 	 21.3706 	 97.4675 	 
S 	 41.447 	 26.4404 	 90.8671 	 
C 	 39.8448 	 26.1204 	 90.2494 	 
C 	 39.7809 	 24.7582 	 89.9279 	 
C 	 40.9361 	 23.9825 	 90.3156 	 
C 	 41.8368 	 24.72 	 90.9873 	 
H 	 38.8781 	 24.3694 	 89.48 	 
C 	 41.062 	 22.4825 	 89.9878 	 
H 	 42.0241 	 22.0883 	 90.2412 	 
H 	 40.9432 	 22.285 	 88.938 	 
C 	 39.917 	 21.6183 	 90.706 	 
H 	 39.0519 	 21.5179 	 90.0723 	 
H 	 39.7131 	 22.0995 	 91.6256 	 
C 	 40.4213 	 20.1833 	 90.9711 	 
H 	 40.7454 	 19.6382 	 90.0181 	 
H 	 39.68 	 19.439 	 91.2777 	 
H 	 41.1862 	 20.2135 	 91.7165 	 
H 	 46.4445 	 24.62 	 92.9249 	 
H 	 39.2556 	 26.9256 	 90.0386 	 
