34

S 	 -44.3373 	 42.5493 	 80.8191 	 
C 	 -44.0283 	 41.9905 	 79.1751 	 
C 	 -44.6706 	 40.7743 	 78.9178 	 
C 	 -45.5275 	 40.3537 	 79.9582 	 
C 	 -45.3019 	 41.0724 	 81.1127 	 
H 	 -46.0946 	 39.438 	 80.0421 	 
C 	 -44.5384 	 40.0354 	 77.6397 	 
H 	 -44.3126 	 40.7302 	 76.8004 	 
H 	 -45.4859 	 39.5973 	 77.3404 	 
C 	 -43.5525 	 38.838 	 77.8235 	 
H 	 -43.313 	 38.5664 	 76.8373 	 
H 	 -42.5933 	 39.1856 	 78.2171 	 
C 	 -44.0427 	 37.6565 	 78.6558 	 
H 	 -44.2272 	 37.9334 	 79.7172 	 
H 	 -45.1128 	 37.3601 	 78.3212 	 
H 	 -43.4622 	 36.7275 	 78.6063 	 
S 	 -46.7582 	 42.2695 	 83.1344 	 
C 	 -47.3501 	 41.2968 	 84.44 	 
C 	 -46.9277 	 40.0298 	 84.3724 	 
C 	 -46.2505 	 39.7728 	 83.1279 	 
C 	 -45.9856 	 40.8429 	 82.376 	 
H 	 -47.2402 	 39.3005 	 85.1024 	 
C 	 -45.5826 	 38.4505 	 82.9426 	 
H 	 -45.6458 	 38.206 	 81.8943 	 
H 	 -46.1737 	 37.6207 	 83.3495 	 
C 	 -44.1576 	 38.3381 	 83.5324 	 
H 	 -43.5355 	 39.0066 	 82.9567 	 
H 	 -43.7631 	 37.405 	 83.0853 	 
C 	 -43.9575 	 38.5778 	 85.0624 	 
H 	 -44.5337 	 37.9174 	 85.6607 	 
H 	 -43.9186 	 39.6083 	 85.2942 	 
H 	 -42.9568 	 38.259 	 85.2562 	 
H 	 -43.5884 	 42.514 	 78.3781 	 
H 	 -47.9218 	 41.6273 	 85.2347 	 
