34

S 	 -1.50734 	 75.5538 	 52.1717 	 
C 	 -2.125 	 76.5055 	 53.5526 	 
C 	 -3.02595 	 77.4292 	 53.0358 	 
C 	 -3.26455 	 77.3568 	 51.6029 	 
C 	 -2.61533 	 76.2992 	 51.0357 	 
H 	 -3.82894 	 78.0136 	 50.9773 	 
C 	 -3.57905 	 78.5409 	 53.9016 	 
H 	 -3.05351 	 79.5079 	 53.8205 	 
H 	 -3.61189 	 78.1957 	 54.9481 	 
C 	 -5.0569 	 78.9425 	 53.5389 	 
H 	 -5.26119 	 79.1692 	 52.5031 	 
H 	 -5.6865 	 78.0734 	 53.7397 	 
C 	 -5.6922 	 80.0598 	 54.3419 	 
H 	 -5.54007 	 79.6907 	 55.3179 	 
H 	 -5.16388 	 80.952 	 54.236 	 
H 	 -6.79741 	 80.1474 	 54.1881 	 
S 	 -1.22525 	 75.8491 	 48.7568 	 
C 	 -2.05394 	 75.1751 	 47.3278 	 
C 	 -3.4213 	 75.1897 	 47.4726 	 
C 	 -3.79544 	 75.5825 	 48.7953 	 
C 	 -2.7154 	 75.8776 	 49.642 	 
H 	 -4.07796 	 74.8892 	 46.6324 	 
C 	 -5.22533 	 75.6905 	 49.3297 	 
H 	 -5.24396 	 75.6314 	 50.4597 	 
H 	 -5.79009 	 74.9066 	 48.8803 	 
C 	 -5.99856 	 76.9751 	 48.9113 	 
H 	 -5.77587 	 77.1491 	 47.8056 	 
H 	 -5.52224 	 77.7813 	 49.5502 	 
C 	 -7.56246 	 76.9206 	 49.1751 	 
H 	 -7.84628 	 76.564 	 50.1899 	 
H 	 -7.8881 	 76.2317 	 48.4014 	 
H 	 -7.9176 	 77.892 	 49.1715 	 
H 	 -1.94477 	 76.471 	 54.6329 	 
H 	 -1.61751 	 74.874 	 46.3787 	 
