34

S 	 42.1786 	 24.0532 	 92.611 	 
C 	 43.5528 	 25.1453 	 92.3743 	 
C 	 44.7983 	 24.5075 	 92.3269 	 
C 	 44.6336 	 23.0718 	 92.5872 	 
C 	 43.2883 	 22.732 	 92.5689 	 
H 	 45.3741 	 22.3295 	 92.7185 	 
C 	 46.1758 	 25.1047 	 92.198 	 
H 	 45.9765 	 26.1003 	 91.8214 	 
H 	 46.771 	 24.6293 	 91.4032 	 
C 	 47.0275 	 25.3022 	 93.5148 	 
H 	 47.1601 	 24.3302 	 94.0293 	 
H 	 48.0252 	 25.5781 	 93.1418 	 
C 	 46.5332 	 26.4073 	 94.4625 	 
H 	 47.2753 	 27.1889 	 94.3658 	 
H 	 45.6083 	 27.0198 	 94.2163 	 
H 	 46.6098 	 26.1288 	 95.5218 	 
S 	 43.5771 	 20.326 	 93.7686 	 
C 	 42.4903 	 18.9931 	 93.3444 	 
C 	 41.9637 	 19.2297 	 92.1074 	 
C 	 42.2678 	 20.5578 	 91.5964 	 
C 	 42.9462 	 21.3426 	 92.4557 	 
H 	 41.3607 	 18.4533 	 91.6851 	 
C 	 41.6181 	 21.0149 	 90.2989 	 
H 	 41.8824 	 20.3947 	 89.5181 	 
H 	 41.9759 	 22.0353 	 90.1141 	 
C 	 40.0916 	 21.1229 	 90.2361 	 
H 	 39.7877 	 21.4872 	 91.2728 	 
H 	 39.6016 	 20.1971 	 90.0204 	 
C 	 39.6177 	 22.0684 	 89.0941 	 
H 	 39.9863 	 23.0886 	 89.2268 	 
H 	 38.5971 	 22.3256 	 89.0495 	 
H 	 39.9455 	 21.5732 	 88.2134 	 
H 	 43.5254 	 26.2123 	 92.1692 	 
H 	 42.3621 	 18.049 	 93.8914 	 
