34

S 	 -62.4951 	 49.6629 	 123.223 	 
C 	 -63.2368 	 48.1134 	 123.677 	 
C 	 -62.5095 	 47.0567 	 123.193 	 
C 	 -61.27 	 47.4641 	 122.5 	 
C 	 -61.2165 	 48.8104 	 122.316 	 
H 	 -60.4914 	 46.8175 	 121.949 	 
C 	 -62.823 	 45.6157 	 123.334 	 
H 	 -62.8507 	 45.2548 	 122.366 	 
H 	 -63.8239 	 45.4426 	 123.702 	 
C 	 -61.8684 	 44.8125 	 124.299 	 
H 	 -60.9079 	 45.1183 	 123.9 	 
H 	 -62.0354 	 45.2124 	 125.32 	 
C 	 -61.9996 	 43.2845 	 124.179 	 
H 	 -61.7423 	 42.987 	 123.227 	 
H 	 -61.3324 	 42.8235 	 124.902 	 
H 	 -63.0202 	 42.986 	 124.395 	 
S 	 -60.8891 	 50.8649 	 120.583 	 
C 	 -59.3266 	 51.1338 	 119.912 	 
C 	 -58.3595 	 50.3253 	 120.429 	 
C 	 -58.9046 	 49.3093 	 121.298 	 
C 	 -60.2276 	 49.5427 	 121.519 	 
H 	 -57.3231 	 50.3999 	 120.087 	 
C 	 -58.0766 	 48.2865 	 122.025 	 
H 	 -58.7268 	 47.7373 	 122.656 	 
H 	 -57.5437 	 48.9574 	 122.611 	 
C 	 -57.1069 	 47.4199 	 121.205 	 
H 	 -56.5188 	 46.8119 	 121.903 	 
H 	 -56.4839 	 48.2342 	 120.807 	 
C 	 -57.8552 	 46.5943 	 120.172 	 
H 	 -58.7454 	 47.0945 	 119.793 	 
H 	 -58.1579 	 45.7183 	 120.714 	 
H 	 -57.3775 	 46.227 	 119.301 	 
H 	 -64.2 	 48.0178 	 124.173 	 
H 	 -59.0619 	 51.9224 	 119.243 	 
