34

S 	 -4.01272 	 23.8231 	 52.3606 	 
C 	 -2.94766 	 23.0056 	 51.2981 	 
C 	 -3.48625 	 21.7861 	 50.7912 	 
C 	 -4.70464 	 21.4365 	 51.3594 	 
C 	 -5.17795 	 22.4074 	 52.2341 	 
H 	 -5.36247 	 20.6548 	 51.0738 	 
C 	 -2.79295 	 20.9217 	 49.8433 	 
H 	 -3.51746 	 20.1213 	 49.6264 	 
H 	 -1.95089 	 20.3875 	 50.4129 	 
C 	 -2.52655 	 21.6037 	 48.5776 	 
H 	 -3.47455 	 21.9132 	 48.1729 	 
H 	 -1.98074 	 22.5671 	 48.7223 	 
C 	 -1.83749 	 20.5966 	 47.5966 	 
H 	 -1.5223 	 21.1788 	 46.6901 	 
H 	 -0.828994 	 20.2368 	 47.9532 	 
H 	 -2.65331 	 19.9723 	 47.2598 	 
S 	 -7.78297 	 21.6389 	 51.9068 	 
C 	 -8.97764 	 22.1452 	 53.0183 	 
C 	 -8.51895 	 23.1454 	 53.8475 	 
C 	 -7.1055 	 23.2576 	 53.8553 	 
C 	 -6.51543 	 22.5196 	 52.8296 	 
H 	 -9.19475 	 23.612 	 54.5584 	 
C 	 -6.42173 	 24.0603 	 54.9113 	 
H 	 -6.72121 	 25.0751 	 54.6498 	 
H 	 -5.29917 	 24.0341 	 54.8533 	 
C 	 -6.90027 	 23.8664 	 56.404 	 
H 	 -7.90396 	 24.2005 	 56.4404 	 
H 	 -6.36026 	 24.6352 	 56.9636 	 
C 	 -6.82514 	 22.421 	 56.8713 	 
H 	 -5.78389 	 22.1641 	 56.929 	 
H 	 -7.29046 	 21.7403 	 56.1609 	 
H 	 -7.23177 	 22.3114 	 57.8738 	 
H 	 -1.99126 	 23.4143 	 51.0627 	 
H 	 -10.0627 	 21.9369 	 52.9057 	 
