34

S 	 -43.5459 	 25.9937 	 87.1894 	 
C 	 -43.5329 	 27.2045 	 88.4101 	 
C 	 -43.792 	 28.434 	 87.9011 	 
C 	 -44.2493 	 28.3592 	 86.5414 	 
C 	 -43.9961 	 27.1342 	 85.9813 	 
H 	 -44.6706 	 29.1081 	 85.8907 	 
C 	 -43.8693 	 29.7912 	 88.6844 	 
H 	 -43.1093 	 30.3851 	 88.2132 	 
H 	 -43.6151 	 29.6759 	 89.7134 	 
C 	 -45.3041 	 30.3411 	 88.6657 	 
H 	 -45.811 	 30.2234 	 87.66 	 
H 	 -46.0163 	 29.7418 	 89.3147 	 
C 	 -45.3098 	 31.7265 	 89.2017 	 
H 	 -44.7441 	 31.7404 	 90.1451 	 
H 	 -44.7921 	 32.297 	 88.4194 	 
H 	 -46.2205 	 32.2333 	 89.1986 	 
S 	 -46.0325 	 26.1286 	 84.5792 	 
C 	 -45.9661 	 26.0481 	 82.7986 	 
C 	 -44.7393 	 26.3812 	 82.4094 	 
C 	 -43.8249 	 26.7344 	 83.4748 	 
C 	 -44.4191 	 26.7137 	 84.6787 	 
H 	 -44.5006 	 26.4983 	 81.3158 	 
C 	 -42.3482 	 27.1129 	 83.2693 	 
H 	 -41.9138 	 26.521 	 82.416 	 
H 	 -41.7768 	 26.7186 	 84.1157 	 
C 	 -42.0579 	 28.6479 	 83.0123 	 
H 	 -41.0036 	 28.7524 	 83.0367 	 
H 	 -42.5102 	 29.2599 	 83.8253 	 
C 	 -42.596 	 29.195 	 81.6931 	 
H 	 -42.6034 	 28.5289 	 80.835 	 
H 	 -42.0887 	 30.1841 	 81.327 	 
H 	 -43.6477 	 29.4345 	 81.8157 	 
H 	 -43.501 	 27.156 	 89.4575 	 
H 	 -46.7318 	 25.673 	 82.1385 	 
