34

S 	 52.3337 	 13.0664 	 81.867 	 
C 	 52.0555 	 12.7615 	 83.5048 	 
C 	 51.1931 	 13.7092 	 84.049 	 
C 	 50.884 	 14.7811 	 83.1235 	 
C 	 51.5506 	 14.6663 	 81.9109 	 
H 	 50.1775 	 15.5707 	 83.3118 	 
C 	 50.544 	 13.6165 	 85.3833 	 
H 	 49.5166 	 13.9469 	 85.1469 	 
H 	 51.0524 	 14.2767 	 86.0785 	 
C 	 50.6174 	 12.2658 	 86.0721 	 
H 	 50.0025 	 11.5381 	 85.4957 	 
H 	 51.6434 	 11.8776 	 86.181 	 
C 	 49.8142 	 12.3959 	 87.3979 	 
H 	 48.758 	 12.0947 	 87.4025 	 
H 	 50.3093 	 11.9805 	 88.2009 	 
H 	 49.7622 	 13.4438 	 87.7235 	 
S 	 50.8276 	 14.7936 	 79.3115 	 
C 	 50.3915 	 16.2898 	 78.6146 	 
C 	 50.7414 	 17.3771 	 79.4435 	 
C 	 51.2752 	 16.9461 	 80.6751 	 
C 	 51.3178 	 15.5319 	 80.7954 	 
H 	 50.6728 	 18.302 	 78.9485 	 
C 	 51.9324 	 17.8494 	 81.7114 	 
H 	 51.7178 	 17.4405 	 82.7272 	 
H 	 51.4615 	 18.8705 	 81.7416 	 
C 	 53.3884 	 18.1496 	 81.4496 	 
H 	 53.4805 	 18.6714 	 80.4652 	 
H 	 53.8751 	 17.1986 	 81.5245 	 
C 	 54.1094 	 19.128 	 82.3708 	 
H 	 54.0415 	 18.634 	 83.3906 	 
H 	 53.4326 	 20.004 	 82.4659 	 
H 	 55.1421 	 19.4027 	 82.138 	 
H 	 52.2357 	 11.817 	 84.0132 	 
H 	 49.9852 	 16.335 	 77.5923 	 
