34

S 	 49.576 	 25.3113 	 88.8609 	 
C 	 49.9569 	 25.3557 	 90.5313 	 
C 	 50.7975 	 24.3086 	 90.9712 	 
C 	 51.1339 	 23.5411 	 89.8475 	 
C 	 50.5842 	 23.9435 	 88.605 	 
H 	 51.7681 	 22.668 	 89.9251 	 
C 	 51.1319 	 23.8357 	 92.3801 	 
H 	 51.6272 	 22.8688 	 92.3606 	 
H 	 50.1982 	 23.7024 	 92.9637 	 
C 	 52.0326 	 24.8105 	 93.2009 	 
H 	 52.5503 	 24.1806 	 93.9334 	 
H 	 52.8268 	 25.1541 	 92.5741 	 
C 	 51.2381 	 25.9151 	 93.8995 	 
H 	 51.8569 	 26.5473 	 94.6576 	 
H 	 51.0478 	 26.5384 	 93.0653 	 
H 	 50.3345 	 25.516 	 94.4078 	 
S 	 49.5729 	 22.9854 	 86.1856 	 
C 	 50.6285 	 22.2051 	 84.9608 	 
C 	 51.9174 	 22.3384 	 85.424 	 
C 	 52.0308 	 22.9121 	 86.7353 	 
C 	 50.8149 	 23.2982 	 87.3314 	 
H 	 52.6796 	 21.8947 	 84.9234 	 
C 	 53.3754 	 23.0485 	 87.3582 	 
H 	 54.1285 	 22.5341 	 86.7484 	 
H 	 53.2765 	 22.6031 	 88.3101 	 
C 	 53.7553 	 24.4955 	 87.657 	 
H 	 54.7873 	 24.48 	 88.0469 	 
H 	 53.1933 	 24.8022 	 88.5618 	 
C 	 53.7384 	 25.5203 	 86.5207 	 
H 	 54.0236 	 26.5633 	 86.8339 	 
H 	 52.6521 	 25.6447 	 86.1927 	 
H 	 54.3451 	 25.0641 	 85.6851 	 
H 	 49.444 	 25.9909 	 91.3021 	 
H 	 50.4317 	 21.7049 	 84.0265 	 
