34

S 	 -33.5759 	 72.4953 	 170.701 	 
C 	 -32.5576 	 73.1121 	 169.426 	 
C 	 -33.3286 	 73.7069 	 168.42 	 
C 	 -34.7233 	 73.6204 	 168.681 	 
C 	 -34.9883 	 73.143 	 169.91 	 
H 	 -35.4872 	 74.0227 	 167.995 	 
C 	 -32.7221 	 74.4671 	 167.211 	 
H 	 -33.2366 	 74.0479 	 166.354 	 
H 	 -31.6221 	 74.3338 	 167.09 	 
C 	 -33.0287 	 75.9852 	 167.202 	 
H 	 -34.0085 	 76.2678 	 167.541 	 
H 	 -32.4201 	 76.5474 	 167.95 	 
C 	 -32.7865 	 76.5143 	 165.771 	 
H 	 -33.4292 	 76.2507 	 164.974 	 
H 	 -32.6734 	 77.5656 	 165.779 	 
H 	 -31.8101 	 76.1803 	 165.334 	 
S 	 -36.7512 	 71.4319 	 171.084 	 
C 	 -38.325 	 71.869 	 171.326 	 
C 	 -38.5156 	 73.2063 	 171.1 	 
C 	 -37.3364 	 73.904 	 170.614 	 
C 	 -36.3196 	 73.0368 	 170.495 	 
H 	 -39.4923 	 73.6659 	 171.278 	 
C 	 -37.4553 	 75.4373 	 170.349 	 
H 	 -36.4675 	 75.9415 	 170.277 	 
H 	 -37.8121 	 75.8776 	 171.268 	 
C 	 -38.3123 	 75.8384 	 169.162 	 
H 	 -38.5925 	 76.8564 	 169.26 	 
H 	 -39.2118 	 75.1758 	 169.212 	 
C 	 -37.6711 	 75.414 	 167.805 	 
H 	 -36.6355 	 75.7484 	 167.881 	 
H 	 -38.265 	 75.8346 	 166.937 	 
H 	 -37.7344 	 74.3657 	 167.631 	 
H 	 -31.5203 	 73.1477 	 169.41 	 
H 	 -39.0147 	 71.0775 	 171.517 	 
