34

S 	 -107.211 	 53.1882 	 117.539 	 
C 	 -108.204 	 54.6113 	 117.715 	 
C 	 -107.475 	 55.774 	 117.796 	 
C 	 -106.056 	 55.5378 	 117.855 	 
C 	 -105.754 	 54.2071 	 117.613 	 
H 	 -105.347 	 56.2385 	 117.943 	 
C 	 -108.104 	 57.1492 	 117.81 	 
H 	 -107.581 	 57.6596 	 118.594 	 
H 	 -109.058 	 57.0299 	 118.244 	 
C 	 -108.292 	 57.9605 	 116.504 	 
H 	 -108.907 	 57.4238 	 115.797 	 
H 	 -108.767 	 58.9089 	 116.765 	 
C 	 -106.91 	 58.3677 	 115.992 	 
H 	 -106.921 	 58.833 	 115.031 	 
H 	 -106.498 	 59.1311 	 116.607 	 
H 	 -106.208 	 57.483 	 115.978 	 
S 	 -104.141 	 52.1101 	 118.494 	 
C 	 -102.442 	 52.22 	 118.211 	 
C 	 -102.244 	 53.1787 	 117.237 	 
C 	 -103.336 	 53.9284 	 116.86 	 
C 	 -104.456 	 53.5824 	 117.619 	 
H 	 -101.197 	 53.2759 	 116.84 	 
C 	 -103.433 	 54.8897 	 115.676 	 
H 	 -103.2 	 55.9213 	 116.075 	 
H 	 -104.484 	 55.0042 	 115.35 	 
C 	 -102.429 	 54.7565 	 114.466 	 
H 	 -101.404 	 54.5102 	 114.723 	 
H 	 -102.441 	 55.7461 	 113.956 	 
C 	 -102.837 	 53.6163 	 113.494 	 
H 	 -103.934 	 53.5149 	 113.408 	 
H 	 -102.478 	 52.6787 	 113.997 	 
H 	 -102.331 	 53.6392 	 112.526 	 
H 	 -109.311 	 54.6364 	 117.71 	 
H 	 -101.719 	 51.5448 	 118.595 	 
