34

S 	 -1.0284 	 2.87022 	 83.6692 	 
C 	 -1.52978 	 1.24703 	 83.8904 	 
C 	 -0.567728 	 0.253774 	 83.573 	 
C 	 0.650284 	 0.883174 	 83.3435 	 
C 	 0.649816 	 2.29433 	 83.4085 	 
H 	 1.64919 	 0.445991 	 83.168 	 
C 	 -0.674013 	 -1.31278 	 83.594 	 
H 	 0.045883 	 -1.83802 	 82.9906 	 
H 	 -1.63045 	 -1.70236 	 83.1946 	 
C 	 -0.506422 	 -1.91739 	 84.9101 	 
H 	 0.486168 	 -1.7435 	 85.3977 	 
H 	 -1.25497 	 -1.54667 	 85.6693 	 
C 	 -0.577154 	 -3.41817 	 84.7668 	 
H 	 -1.52488 	 -3.71027 	 84.2419 	 
H 	 0.149426 	 -3.83889 	 84.1016 	 
H 	 -0.638979 	 -4.04637 	 85.6416 	 
S 	 1.4759 	 4.61836 	 82.1495 	 
C 	 3.08379 	 5.22599 	 82.5399 	 
C 	 3.77994 	 4.40211 	 83.4343 	 
C 	 2.98429 	 3.33759 	 83.9159 	 
C 	 1.72875 	 3.26755 	 83.2705 	 
H 	 4.71772 	 4.7237 	 83.7654 	 
C 	 3.57283 	 2.28347 	 84.7734 	 
H 	 4.43591 	 1.82517 	 84.3538 	 
H 	 2.88935 	 1.44267 	 84.7054 	 
C 	 3.86965 	 2.59573 	 86.2326 	 
H 	 4.82826 	 3.10814 	 86.3693 	 
H 	 4.10716 	 1.65027 	 86.7286 	 
C 	 2.7142 	 3.1254 	 87.0673 	 
H 	 2.61016 	 4.17184 	 86.8917 	 
H 	 2.758 	 2.90063 	 88.158 	 
H 	 1.77796 	 2.64414 	 86.8142 	 
H 	 -2.54905 	 1.03682 	 84.2408 	 
H 	 3.64235 	 6.12781 	 82.1633 	 
