34

S 	 8.8226 	 -7.62267 	 64.1883 	 
C 	 7.32858 	 -7.68892 	 63.3254 	 
C 	 7.52869 	 -8.15555 	 62.0199 	 
C 	 8.93001 	 -8.3325 	 61.6931 	 
C 	 9.77082 	 -8.07077 	 62.7251 	 
H 	 9.36737 	 -8.75301 	 60.8306 	 
C 	 6.39115 	 -8.71119 	 61.1766 	 
H 	 5.54886 	 -9.11839 	 61.7426 	 
H 	 6.65649 	 -9.6873 	 60.7216 	 
C 	 5.79951 	 -7.82214 	 60.0516 	 
H 	 4.82297 	 -8.05754 	 59.7681 	 
H 	 5.74686 	 -6.73038 	 60.3771 	 
C 	 6.64107 	 -7.79286 	 58.8075 	 
H 	 6.68781 	 -8.81843 	 58.406 	 
H 	 6.20191 	 -7.16945 	 58.0722 	 
H 	 7.73225 	 -7.41677 	 59.1011 	 
S 	 12.0776 	 -6.73479 	 62.0016 	 
C 	 13.6301 	 -7.38967 	 62.4361 	 
C 	 13.4801 	 -8.51621 	 63.1945 	 
C 	 12.1162 	 -8.95684 	 63.3333 	 
C 	 11.2544 	 -8.04612 	 62.7839 	 
H 	 14.3853 	 -8.93034 	 63.595 	 
C 	 11.775 	 -10.2411 	 64.1133 	 
H 	 10.8506 	 -10.1305 	 64.6822 	 
H 	 12.558 	 -10.4879 	 64.8032 	 
C 	 11.631 	 -11.592 	 63.3341 	 
H 	 11.5418 	 -12.3282 	 64.078 	 
H 	 12.5981 	 -11.8806 	 62.8601 	 
C 	 10.3869 	 -11.6303 	 62.4424 	 
H 	 10.3124 	 -10.9595 	 61.5768 	 
H 	 9.57069 	 -11.5461 	 63.1775 	 
H 	 10.2867 	 -12.7316 	 62.1202 	 
H 	 6.40353 	 -7.83419 	 63.7972 	 
H 	 14.5852 	 -7.04605 	 62.1739 	 
