34

S 	 24.371 	 6.62772 	 69.0004 	 
C 	 25.6533 	 7.67772 	 68.3885 	 
C 	 25.2441 	 8.99125 	 68.2527 	 
C 	 23.9562 	 9.19476 	 68.8215 	 
C 	 23.3321 	 8.04228 	 69.2057 	 
H 	 23.4077 	 10.0935 	 68.9926 	 
C 	 26.1026 	 10.1723 	 67.8563 	 
H 	 25.504 	 11.0306 	 67.4402 	 
H 	 26.6225 	 10.0016 	 66.9961 	 
C 	 27.0158 	 10.8269 	 68.9457 	 
H 	 26.5445 	 10.9379 	 69.9383 	 
H 	 27.8241 	 10.1681 	 69.0871 	 
C 	 27.8062 	 12.1168 	 68.5828 	 
H 	 27.0155 	 12.8317 	 68.2715 	 
H 	 28.5811 	 12.4588 	 69.4033 	 
H 	 28.2691 	 11.8653 	 67.7002 	 
S 	 20.9189 	 6.96761 	 68.5209 	 
C 	 19.5282 	 7.81843 	 69.1308 	 
C 	 19.7871 	 8.68849 	 70.1521 	 
C 	 21.1808 	 8.81594 	 70.4515 	 
C 	 21.9091 	 8.03 	 69.5655 	 
H 	 18.9372 	 9.24971 	 70.5022 	 
C 	 21.6763 	 9.90884 	 71.3025 	 
H 	 21.8087 	 10.7053 	 70.5144 	 
H 	 22.7149 	 9.58878 	 71.5899 	 
C 	 20.8307 	 10.2066 	 72.4856 	 
H 	 20.8841 	 9.42927 	 73.2161 	 
H 	 19.7569 	 10.3005 	 72.2346 	 
C 	 21.3172 	 11.4994 	 73.3406 	 
H 	 22.3521 	 11.4023 	 73.7047 	 
H 	 20.5641 	 11.684 	 74.159 	 
H 	 21.3036 	 12.4179 	 72.7725 	 
H 	 26.6598 	 7.33628 	 68.2589 	 
H 	 18.5096 	 7.46279 	 68.8734 	 
