34

S 	 -10.7622 	 49.442 	 43.3945 	 
C 	 -12.0612 	 50.28 	 42.4035 	 
C 	 -12.8775 	 51.042 	 43.2425 	 
C 	 -12.5363 	 50.8283 	 44.5967 	 
C 	 -11.5168 	 49.9594 	 44.8771 	 
H 	 -13.0575 	 51.2698 	 45.3804 	 
C 	 -13.8465 	 52.0952 	 42.8093 	 
H 	 -14.3091 	 52.4508 	 43.7828 	 
H 	 -14.5453 	 51.5256 	 42.1673 	 
C 	 -13.2837 	 53.2435 	 41.9497 	 
H 	 -12.4377 	 53.7716 	 42.4261 	 
H 	 -13.043 	 52.7924 	 40.9738 	 
C 	 -14.2927 	 54.2483 	 41.5539 	 
H 	 -13.8558 	 54.9132 	 40.8648 	 
H 	 -15.0828 	 53.8266 	 40.954 	 
H 	 -14.8224 	 54.7969 	 42.3632 	 
S 	 -9.31708 	 49.0998 	 46.2542 	 
C 	 -9.41978 	 48.9399 	 47.9767 	 
C 	 -10.6949 	 49.0479 	 48.4634 	 
C 	 -11.6058 	 49.614 	 47.4924 	 
C 	 -11.0125 	 49.5665 	 46.2179 	 
H 	 -10.912 	 48.7835 	 49.4181 	 
C 	 -13.0213 	 50.0276 	 47.8058 	 
H 	 -13.3523 	 49.3486 	 48.5855 	 
H 	 -13.7154 	 50.0119 	 46.9787 	 
C 	 -13.0719 	 51.489 	 48.2719 	 
H 	 -12.7834 	 52.091 	 47.4347 	 
H 	 -12.4091 	 51.8063 	 49.1605 	 
C 	 -14.4118 	 51.9648 	 48.8062 	 
H 	 -14.8089 	 51.3147 	 49.5795 	 
H 	 -15.1343 	 52.0292 	 47.9841 	 
H 	 -14.2315 	 52.9576 	 49.2933 	 
H 	 -12.2879 	 50.1427 	 41.3385 	 
H 	 -8.6361 	 48.6268 	 48.5812 	 
