34

S 	 -19.3659 	 34.8689 	 36.7017 	 
C 	 -20.5504 	 35.06 	 35.4402 	 
C 	 -20.8947 	 33.8847 	 34.8166 	 
C 	 -20.3925 	 32.7866 	 35.5659 	 
C 	 -19.5845 	 33.1139 	 36.595 	 
H 	 -20.6478 	 31.7306 	 35.3742 	 
C 	 -21.5641 	 33.7849 	 33.4431 	 
H 	 -22.2782 	 34.5917 	 33.2399 	 
H 	 -22.1002 	 32.7901 	 33.3434 	 
C 	 -20.5632 	 34.0365 	 32.265 	 
H 	 -21.0529 	 34.2858 	 31.3591 	 
H 	 -20.0272 	 34.9831 	 32.3827 	 
C 	 -19.6507 	 32.9059 	 32.1658 	 
H 	 -19.1463 	 32.8837 	 31.1796 	 
H 	 -19.0226 	 32.7202 	 32.9974 	 
H 	 -20.29 	 31.9841 	 32.1001 	 
S 	 -19.7629 	 32.4002 	 39.2001 	 
C 	 -18.9529 	 30.9207 	 39.6684 	 
C 	 -18.0354 	 30.5384 	 38.6942 	 
C 	 -18.0086 	 31.4091 	 37.5401 	 
C 	 -19.062 	 32.2745 	 37.6527 	 
H 	 -17.3821 	 29.7534 	 38.8895 	 
C 	 -17.0367 	 31.2446 	 36.3858 	 
H 	 -16.1031 	 31.1351 	 36.8683 	 
H 	 -16.9526 	 32.2756 	 35.9404 	 
C 	 -17.3449 	 30.2917 	 35.2178 	 
H 	 -16.6579 	 30.4009 	 34.3615 	 
H 	 -18.3764 	 30.5266 	 34.7657 	 
C 	 -17.4642 	 28.7718 	 35.5796 	 
H 	 -18.2315 	 28.6333 	 36.3391 	 
H 	 -16.5834 	 28.2099 	 35.896 	 
H 	 -17.8068 	 28.3075 	 34.6349 	 
H 	 -20.7362 	 36.0516 	 35.0059 	 
H 	 -19.1948 	 30.4657 	 40.5506 	 
