34

S 	 -101.218 	 50.7852 	 128.661 	 
C 	 -99.9854 	 49.9043 	 127.815 	 
C 	 -100.399 	 49.397 	 126.607 	 
C 	 -101.759 	 49.793 	 126.367 	 
C 	 -102.375 	 50.4273 	 127.406 	 
H 	 -102.306 	 49.5054 	 125.487 	 
C 	 -99.4965 	 48.6782 	 125.683 	 
H 	 -99.8851 	 47.7236 	 125.45 	 
H 	 -98.4135 	 48.6053 	 126.105 	 
C 	 -99.3359 	 49.4862 	 124.388 	 
H 	 -100.397 	 49.4251 	 124.08 	 
H 	 -99.0799 	 50.5655 	 124.501 	 
C 	 -98.4935 	 48.7633 	 123.31 	 
H 	 -98.9842 	 47.8755 	 122.931 	 
H 	 -98.3442 	 49.4697 	 122.573 	 
H 	 -97.5123 	 48.4788 	 123.734 	 
S 	 -103.927 	 52.6051 	 127.945 	 
C 	 -105.641 	 52.3971 	 127.943 	 
C 	 -106.085 	 51.1235 	 127.693 	 
C 	 -104.996 	 50.2272 	 127.451 	 
C 	 -103.762 	 50.8773 	 127.565 	 
H 	 -107.122 	 50.9351 	 127.632 	 
C 	 -105.199 	 48.819 	 127.112 	 
H 	 -105.823 	 48.3693 	 127.878 	 
H 	 -104.224 	 48.341 	 127.128 	 
C 	 -105.934 	 48.4264 	 125.807 	 
H 	 -105.225 	 48.6811 	 124.957 	 
H 	 -106.862 	 49.0005 	 125.749 	 
C 	 -106.285 	 46.9125 	 125.643 	 
H 	 -106.726 	 46.7301 	 124.649 	 
H 	 -107.075 	 46.6225 	 126.4 	 
H 	 -105.432 	 46.2377 	 125.781 	 
H 	 -98.8976 	 49.9591 	 128.125 	 
H 	 -106.309 	 53.2166 	 128.184 	 
