34

S 	 60.3626 	 -5.60124 	 87.2775 	 
C 	 59.5883 	 -4.80133 	 88.6949 	 
C 	 60.4313 	 -4.81345 	 89.7738 	 
C 	 61.7532 	 -5.18647 	 89.3739 	 
C 	 61.8706 	 -5.59969 	 88.1106 	 
H 	 62.62 	 -5.22523 	 90.0322 	 
C 	 60.0429 	 -4.41365 	 91.1676 	 
H 	 59.4196 	 -3.57197 	 91.11 	 
H 	 60.754 	 -4.15807 	 91.9273 	 
C 	 59.1562 	 -5.43827 	 91.8951 	 
H 	 58.7994 	 -4.95451 	 92.844 	 
H 	 58.2368 	 -5.72077 	 91.3091 	 
C 	 59.9494 	 -6.71635 	 92.4121 	 
H 	 60.8041 	 -6.52909 	 93.0306 	 
H 	 59.2801 	 -7.41823 	 92.9948 	 
H 	 60.3529 	 -7.2536 	 91.5713 	 
S 	 62.7801 	 -8.00152 	 87.1253 	 
C 	 64.5222 	 -8.14899 	 86.6588 	 
C 	 65.1673 	 -6.96676 	 86.904 	 
C 	 64.3135 	 -5.92901 	 87.4164 	 
C 	 62.9998 	 -6.34444 	 87.6217 	 
H 	 66.2297 	 -6.79151 	 86.5894 	 
C 	 64.8113 	 -4.51904 	 87.6983 	 
H 	 63.9495 	 -3.89533 	 88.0038 	 
H 	 65.3196 	 -4.0767 	 86.8486 	 
C 	 65.822 	 -4.46638 	 88.8357 	 
H 	 66.6235 	 -5.17603 	 88.6766 	 
H 	 65.3512 	 -4.7406 	 89.8262 	 
C 	 66.2717 	 -3.02143 	 89.1891 	 
H 	 66.7791 	 -2.57055 	 88.3329 	 
H 	 66.8824 	 -2.89417 	 90.0864 	 
H 	 65.4411 	 -2.36492 	 89.4222 	 
H 	 58.5764 	 -4.4321 	 88.8272 	 
H 	 65.0529 	 -9.00716 	 86.2277 	 
