34

S 	 -15.8659 	 54.8048 	 59.1898 	 
C 	 -16.1185 	 53.2589 	 58.3648 	 
C 	 -14.8822 	 52.534 	 58.3586 	 
C 	 -13.8257 	 53.2436 	 58.9837 	 
C 	 -14.2414 	 54.3995 	 59.6388 	 
H 	 -12.8432 	 52.8676 	 59.0183 	 
C 	 -14.6474 	 51.2647 	 57.6591 	 
H 	 -15.5702 	 50.8543 	 57.2937 	 
H 	 -14.3101 	 50.5506 	 58.3743 	 
C 	 -13.69 	 51.3781 	 56.4315 	 
H 	 -14.1768 	 51.9116 	 55.6006 	 
H 	 -12.7981 	 51.8985 	 56.7505 	 
C 	 -13.1945 	 49.9878 	 55.835 	 
H 	 -12.5703 	 50.1311 	 54.93 	 
H 	 -12.6112 	 49.3151 	 56.4456 	 
H 	 -14.0419 	 49.381 	 55.3979 	 
S 	 -11.6256 	 54.7969 	 60.7391 	 
C 	 -11.2854 	 56.3311 	 61.4727 	 
C 	 -12.4299 	 56.9563 	 61.8158 	 
C 	 -13.6657 	 56.3774 	 61.1962 	 
C 	 -13.36 	 55.2069 	 60.4807 	 
H 	 -12.3963 	 57.8589 	 62.3378 	 
C 	 -15.0161 	 56.8977 	 61.469 	 
H 	 -15.5479 	 56.0376 	 61.7391 	 
H 	 -15.2969 	 57.2054 	 60.4947 	 
C 	 -15.049 	 58.0573 	 62.5449 	 
H 	 -14.336 	 58.8712 	 62.2943 	 
H 	 -14.6357 	 57.6803 	 63.4708 	 
C 	 -16.4428 	 58.6156 	 62.7082 	 
H 	 -17.04 	 57.7556 	 63.12 	 
H 	 -16.8995 	 59.0127 	 61.7577 	 
H 	 -16.4461 	 59.3254 	 63.5314 	 
H 	 -17.0681 	 52.8736 	 57.9926 	 
H 	 -10.2713 	 56.6533 	 61.8784 	 
