34

S 	 55.9077 	 11.6307 	 75.9793 	 
C 	 56.713 	 13.1707 	 75.7514 	 
C 	 58.0642 	 13.0375 	 76.1025 	 
C 	 58.3704 	 11.7199 	 76.5416 	 
C 	 57.3369 	 10.8196 	 76.5218 	 
H 	 59.3002 	 11.3928 	 76.994 	 
C 	 59.0099 	 14.2232 	 76.2724 	 
H 	 58.5924 	 15.2276 	 75.9332 	 
H 	 59.8049 	 14.1311 	 75.6197 	 
C 	 59.5866 	 14.4074 	 77.717 	 
H 	 58.8048 	 14.8237 	 78.3325 	 
H 	 60.0012 	 13.4448 	 78.2088 	 
C 	 60.6745 	 15.3885 	 77.6651 	 
H 	 61.5881 	 15.1579 	 77.1205 	 
H 	 60.3173 	 16.366 	 77.3477 	 
H 	 60.938 	 15.4868 	 78.7322 	 
S 	 57.4502 	 9.12591 	 78.7133 	 
C 	 57.3218 	 7.39585 	 78.4125 	 
C 	 56.9556 	 7.15004 	 77.1175 	 
C 	 57.0252 	 8.31839 	 76.3051 	 
C 	 57.3875 	 9.44212 	 76.9725 	 
H 	 56.6556 	 6.09953 	 76.8914 	 
C 	 56.44 	 8.35394 	 74.8088 	 
H 	 57.33 	 8.68973 	 74.2564 	 
H 	 55.6437 	 9.03918 	 74.5936 	 
C 	 56.1466 	 7.04642 	 74.1435 	 
H 	 55.2369 	 6.70823 	 74.4176 	 
H 	 56.8261 	 6.21581 	 74.4974 	 
C 	 56.1496 	 6.96114 	 72.5824 	 
H 	 56.0906 	 6.03279 	 72.129 	 
H 	 56.9891 	 7.49887 	 72.1671 	 
H 	 55.3229 	 7.46117 	 72.0876 	 
H 	 56.3239 	 14.1271 	 75.386 	 
H 	 57.3937 	 6.55156 	 79.1163 	 
