34

S 	 -34.0304 	 31.0338 	 48.1633 	 
C 	 -32.921 	 30.1194 	 49.0692 	 
C 	 -32.3626 	 30.934 	 50.0187 	 
C 	 -32.9239 	 32.2676 	 50.0213 	 
C 	 -33.7487 	 32.4998 	 48.9692 	 
H 	 -32.7301 	 33.1499 	 50.7135 	 
C 	 -31.4038 	 30.5045 	 51.1113 	 
H 	 -30.9728 	 29.5737 	 50.7571 	 
H 	 -31.8997 	 30.4854 	 52.0375 	 
C 	 -30.2577 	 31.5566 	 51.3545 	 
H 	 -30.4937 	 32.6063 	 51.4403 	 
H 	 -29.9096 	 31.2081 	 52.3408 	 
C 	 -29.0454 	 31.4219 	 50.341 	 
H 	 -28.764 	 30.4449 	 50.1938 	 
H 	 -29.2177 	 31.8963 	 49.2676 	 
H 	 -28.1559 	 31.9434 	 50.7781 	 
S 	 -34.8945 	 34.7753 	 49.8988 	 
C 	 -35.7249 	 35.9112 	 48.8876 	 
C 	 -35.6505 	 35.493 	 47.6505 	 
C 	 -34.8999 	 34.3021 	 47.3817 	 
C 	 -34.4513 	 33.708 	 48.6084 	 
H 	 -35.9584 	 36.2753 	 47.0019 	 
C 	 -34.5254 	 33.8853 	 45.9822 	 
H 	 -33.7497 	 33.1497 	 46.1886 	 
H 	 -34.2065 	 34.7767 	 45.4457 	 
C 	 -35.6707 	 33.2877 	 45.0725 	 
H 	 -36.4427 	 33.9998 	 45.2416 	 
H 	 -35.908 	 32.2913 	 45.394 	 
C 	 -35.0536 	 33.2077 	 43.6216 	 
H 	 -34.4714 	 34.1422 	 43.4319 	 
H 	 -35.6974 	 32.8767 	 42.8245 	 
H 	 -34.37 	 32.3495 	 43.7279 	 
H 	 -32.6527 	 29.0809 	 48.8668 	 
H 	 -36.2135 	 36.8852 	 49.1333 	 
