34

S 	 -22.8044 	 44.5836 	 58.1623 	 
C 	 -23.9075 	 45.6189 	 59.0733 	 
C 	 -25.2039 	 45.4135 	 58.6609 	 
C 	 -25.3636 	 44.3595 	 57.6913 	 
C 	 -24.1411 	 43.8266 	 57.2357 	 
H 	 -26.3136 	 43.9838 	 57.3313 	 
C 	 -26.4664 	 46.1569 	 59.0878 	 
H 	 -26.8262 	 45.4828 	 59.9328 	 
H 	 -27.1714 	 45.9855 	 58.2276 	 
C 	 -26.3175 	 47.6937 	 59.2904 	 
H 	 -27.2493 	 48.0863 	 59.715 	 
H 	 -25.5024 	 48.0237 	 59.9177 	 
C 	 -25.9913 	 48.4548 	 57.9484 	 
H 	 -26.8737 	 48.3379 	 57.2916 	 
H 	 -25.7081 	 49.5452 	 57.9692 	 
H 	 -25.1162 	 48.0407 	 57.4289 	 
S 	 -22.7414 	 41.6317 	 56.6054 	 
C 	 -23.0196 	 40.8449 	 55.1245 	 
C 	 -24.0281 	 41.4517 	 54.4217 	 
C 	 -24.6378 	 42.5095 	 55.1376 	 
C 	 -23.9235 	 42.8409 	 56.2319 	 
H 	 -24.4087 	 40.9009 	 53.629 	 
C 	 -25.9305 	 43.0949 	 54.5714 	 
H 	 -25.8342 	 43.0279 	 53.4501 	 
H 	 -25.9208 	 44.1973 	 54.7529 	 
C 	 -27.172 	 42.375 	 55.0286 	 
H 	 -27.9544 	 42.9549 	 54.5836 	 
H 	 -27.269 	 42.3455 	 56.1304 	 
C 	 -27.2691 	 40.981 	 54.4632 	 
H 	 -28.1786 	 40.4897 	 54.6916 	 
H 	 -26.5334 	 40.3019 	 54.9212 	 
H 	 -27.0112 	 40.9565 	 53.3938 	 
H 	 -23.6159 	 46.4079 	 59.6838 	 
H 	 -22.6272 	 39.8821 	 54.8652 	 
