34

S 	 43.469 	 25.7841 	 94.4771 	 
C 	 44.613 	 25.7604 	 95.8772 	 
C 	 43.9205 	 25.3049 	 97.0326 	 
C 	 42.5515 	 25.0434 	 96.8034 	 
C 	 42.1297 	 25.3097 	 95.4979 	 
H 	 41.855 	 24.7539 	 97.5348 	 
C 	 44.5246 	 24.9786 	 98.4347 	 
H 	 45.5325 	 24.6308 	 98.2248 	 
H 	 43.9948 	 24.1079 	 98.7568 	 
C 	 44.5461 	 25.9972 	 99.5806 	 
H 	 45.0643 	 26.8742 	 99.2794 	 
H 	 43.6342 	 26.3407 	 99.9377 	 
C 	 45.3179 	 25.3674 	 100.703 	 
H 	 45.1005 	 24.3279 	 100.903 	 
H 	 46.3487 	 25.2718 	 100.264 	 
H 	 45.3724 	 25.9161 	 101.608 	 
S 	 39.5455 	 26.1054 	 95.8543 	 
C 	 38.3097 	 26.0736 	 94.6248 	 
C 	 38.8669 	 25.3332 	 93.5515 	 
C 	 40.2552 	 24.9942 	 93.7008 	 
C 	 40.7575 	 25.3409 	 94.9674 	 
H 	 38.2774 	 25.0559 	 92.6871 	 
C 	 41.0287 	 24.1328 	 92.6302 	 
H 	 40.651 	 23.0852 	 92.6422 	 
H 	 42.1187 	 24.0282 	 92.7514 	 
C 	 40.8265 	 24.6031 	 91.1347 	 
H 	 41.3848 	 25.5239 	 90.9576 	 
H 	 39.7798 	 25.0178 	 90.9371 	 
C 	 41.3793 	 23.6303 	 90.1429 	 
H 	 40.8444 	 22.6457 	 90.1235 	 
H 	 42.3859 	 23.4399 	 90.2855 	 
H 	 41.1922 	 24.0245 	 89.149 	 
H 	 45.6416 	 25.9008 	 95.7639 	 
H 	 37.309 	 26.4888 	 94.633 	 
