34

S 	 56.5733 	 17.1292 	 61.5861 	 
C 	 58.2015 	 17.3357 	 62.1232 	 
C 	 59.0469 	 16.4202 	 61.5005 	 
C 	 58.3672 	 15.5807 	 60.553 	 
C 	 56.9825 	 15.747 	 60.4784 	 
H 	 58.7897 	 14.7895 	 60.0405 	 
C 	 60.5164 	 16.456 	 61.7486 	 
H 	 60.7826 	 17.5326 	 61.8548 	 
H 	 61.0688 	 15.9721 	 60.9502 	 
C 	 60.9943 	 15.651 	 63.018 	 
H 	 62.0559 	 15.7678 	 63.2789 	 
H 	 60.457 	 16.0423 	 63.8715 	 
C 	 60.7779 	 14.1463 	 62.8855 	 
H 	 59.836 	 13.7446 	 62.498 	 
H 	 61.5822 	 13.9489 	 62.2132 	 
H 	 60.9751 	 13.5102 	 63.732 	 
S 	 54.392 	 15.0585 	 60.7046 	 
C 	 53.6902 	 13.907 	 59.6019 	 
C 	 54.5822 	 13.4527 	 58.6694 	 
C 	 55.8596 	 13.9929 	 58.8985 	 
C 	 55.9204 	 14.9605 	 59.9094 	 
H 	 54.2143 	 12.6602 	 58.0492 	 
C 	 57.0494 	 13.4924 	 58.0192 	 
H 	 56.8308 	 12.4091 	 57.9045 	 
H 	 57.9867 	 13.536 	 58.6599 	 
C 	 57.4345 	 14.2345 	 56.7031 	 
H 	 56.7324 	 14.067 	 55.8392 	 
H 	 58.425 	 13.6998 	 56.3734 	 
C 	 57.6892 	 15.7497 	 56.8628 	 
H 	 58.1082 	 15.9688 	 55.9102 	 
H 	 58.4813 	 15.9382 	 57.5498 	 
H 	 56.8325 	 16.3084 	 57.1277 	 
H 	 58.6318 	 18.1107 	 62.7891 	 
H 	 52.664 	 13.5611 	 59.7715 	 
