34

S 	 5.04089 	 22.3525 	 40.6429 	 
C 	 4.06044 	 21.7931 	 41.9154 	 
C 	 3.50052 	 22.9004 	 42.5327 	 
C 	 3.7983 	 24.1419 	 41.8566 	 
C 	 4.61318 	 23.9571 	 40.7485 	 
H 	 3.56452 	 25.1095 	 42.1618 	 
C 	 2.68973 	 22.9263 	 43.7767 	 
H 	 3.11457 	 22.1946 	 44.5005 	 
H 	 1.74175 	 22.5461 	 43.5959 	 
C 	 2.51069 	 24.2752 	 44.4764 	 
H 	 3.41577 	 24.6536 	 44.8832 	 
H 	 2.08974 	 24.953 	 43.8059 	 
C 	 1.48591 	 24.1993 	 45.6637 	 
H 	 1.72805 	 23.4751 	 46.4433 	 
H 	 1.47726 	 25.1632 	 46.2133 	 
H 	 0.473308 	 24.1122 	 45.3312 	 
S 	 6.85232 	 25.6576 	 40.2764 	 
C 	 6.74965 	 26.9331 	 39.144 	 
C 	 5.43293 	 27.0515 	 38.6317 	 
C 	 4.5226 	 25.9675 	 38.982 	 
C 	 5.16064 	 25.0668 	 39.9281 	 
H 	 5.09212 	 27.9185 	 37.9834 	 
C 	 3.08015 	 26.0453 	 38.5845 	 
H 	 2.7626 	 25.2153 	 39.2706 	 
H 	 2.73753 	 25.5175 	 37.6489 	 
C 	 2.39688 	 27.313 	 38.8856 	 
H 	 2.42039 	 28.0936 	 38.1098 	 
H 	 2.72955 	 27.6467 	 39.8587 	 
C 	 0.881907 	 26.945 	 39.1681 	 
H 	 0.509742 	 27.7857 	 39.7464 	 
H 	 0.927602 	 26.0193 	 39.7667 	 
H 	 0.322844 	 26.7474 	 38.2444 	 
H 	 3.96103 	 20.765 	 42.3079 	 
H 	 7.49921 	 27.6942 	 38.9728 	 
