34

S 	 -30.1687 	 54.5012 	 112.678 	 
C 	 -28.912 	 55.2189 	 111.697 	 
C 	 -29.243 	 55.0865 	 110.346 	 
C 	 -30.6235 	 54.7681 	 110.167 	 
C 	 -31.2815 	 54.4078 	 111.332 	 
H 	 -31.2475 	 54.8527 	 109.252 	 
C 	 -28.3006 	 55.4728 	 109.246 	 
H 	 -27.9413 	 54.5488 	 108.864 	 
H 	 -27.4204 	 55.8018 	 109.784 	 
C 	 -28.6456 	 56.6114 	 108.247 	 
H 	 -29.6446 	 56.4264 	 107.964 	 
H 	 -28.6922 	 57.5856 	 108.681 	 
C 	 -27.7847 	 56.6458 	 106.988 	 
H 	 -26.7994 	 56.8248 	 107.321 	 
H 	 -27.9741 	 55.755 	 106.418 	 
H 	 -28.1509 	 57.5048 	 106.373 	 
S 	 -33.6654 	 55.3385 	 112.251 	 
C 	 -35.1521 	 54.4203 	 112.013 	 
C 	 -34.9004 	 53.3243 	 111.2 	 
C 	 -33.5179 	 53.1276 	 110.942 	 
C 	 -32.6894 	 54.1428 	 111.457 	 
H 	 -35.7012 	 52.7296 	 110.733 	 
C 	 -33.2453 	 51.9707 	 110.076 	 
H 	 -34.1444 	 51.42 	 110.097 	 
H 	 -32.5474 	 51.2793 	 110.612 	 
C 	 -32.8092 	 52.2127 	 108.654 	 
H 	 -32.8988 	 51.3032 	 108.055 	 
H 	 -31.787 	 52.4899 	 108.653 	 
C 	 -33.663 	 53.2499 	 107.992 	 
H 	 -33.3396 	 54.2672 	 108.336 	 
H 	 -34.7248 	 53.0775 	 108.092 	 
H 	 -33.6222 	 53.167 	 106.919 	 
H 	 -27.893 	 55.3635 	 112.022 	 
H 	 -36.1118 	 54.7154 	 112.392 	 
