34

S 	 -22.3062 	 32.0821 	 46.5409 	 
C 	 -20.593 	 31.6248 	 46.8685 	 
C 	 -20.1174 	 30.6189 	 46.0084 	 
C 	 -21.1081 	 30.2842 	 45.0412 	 
C 	 -22.2503 	 31.0613 	 45.099 	 
H 	 -20.9538 	 29.6146 	 44.2534 	 
C 	 -18.7867 	 29.8367 	 46.1984 	 
H 	 -19.1703 	 28.9246 	 46.6583 	 
H 	 -18.0698 	 30.3161 	 47.0031 	 
C 	 -18.0141 	 29.6198 	 44.9076 	 
H 	 -18.5962 	 29.1796 	 44.1032 	 
H 	 -17.4861 	 30.5181 	 44.559 	 
C 	 -16.8284 	 28.6829 	 45.0477 	 
H 	 -17.1708 	 27.7039 	 45.3309 	 
H 	 -16.199 	 28.7607 	 44.2515 	 
H 	 -16.2743 	 28.9559 	 45.9194 	 
S 	 -24.5935 	 32.0958 	 44.2663 	 
C 	 -25.6556 	 31.3086 	 43.1112 	 
C 	 -24.9669 	 30.2745 	 42.4735 	 
C 	 -23.708 	 29.9744 	 43.1608 	 
C 	 -23.3535 	 30.9159 	 44.1634 	 
H 	 -25.4865 	 29.7542 	 41.6972 	 
C 	 -22.7992 	 28.9057 	 42.7271 	 
H 	 -23.3679 	 28.2364 	 42.0272 	 
H 	 -22.68 	 28.1662 	 43.5639 	 
C 	 -21.6044 	 29.2034 	 41.7368 	 
H 	 -20.9845 	 30.0708 	 42.0369 	 
H 	 -22.0466 	 29.4991 	 40.7883 	 
C 	 -20.7504 	 27.9848 	 41.5224 	 
H 	 -20.1834 	 27.7307 	 42.3789 	 
H 	 -20.1845 	 27.967 	 40.5395 	 
H 	 -21.4374 	 27.1443 	 41.3894 	 
H 	 -20.033 	 32.0437 	 47.6909 	 
H 	 -26.6479 	 31.6522 	 42.8975 	 
