34

S 	 5.22358 	 -3.94749 	 100.804 	 
C 	 4.86052 	 -3.09529 	 99.2672 	 
C 	 5.49726 	 -3.74163 	 98.1991 	 
C 	 6.47068 	 -4.67495 	 98.6494 	 
C 	 6.53437 	 -4.78706 	 100.038 	 
H 	 7.11135 	 -5.36622 	 98.1145 	 
C 	 5.11522 	 -3.50167 	 96.787 	 
H 	 5.29424 	 -2.39403 	 96.6548 	 
H 	 4.10084 	 -3.78952 	 96.5956 	 
C 	 5.97505 	 -4.35342 	 95.754 	 
H 	 7.00957 	 -4.00469 	 95.8291 	 
H 	 6.02355 	 -5.38513 	 96.102 	 
C 	 5.48409 	 -4.30626 	 94.3063 	 
H 	 4.40614 	 -4.51149 	 94.1535 	 
H 	 5.54934 	 -3.24371 	 94.0816 	 
H 	 6.08374 	 -4.79411 	 93.5164 	 
S 	 7.00198 	 -6.74331 	 101.952 	 
C 	 8.66061 	 -7.09486 	 102.369 	 
C 	 9.53254 	 -6.5986 	 101.474 	 
C 	 8.90742 	 -5.70265 	 100.507 	 
C 	 7.52651 	 -5.53746 	 100.79 	 
H 	 10.5788 	 -6.79729 	 101.562 	 
C 	 9.71319 	 -4.97458 	 99.4641 	 
H 	 9.19126 	 -4.75442 	 98.5793 	 
H 	 10.6504 	 -5.50661 	 99.2323 	 
C 	 10.124 	 -3.57145 	 100.085 	 
H 	 10.674 	 -3.77599 	 100.96 	 
H 	 9.22688 	 -2.99089 	 100.409 	 
C 	 10.9139 	 -2.74273 	 99.0604 	 
H 	 11.9088 	 -3.09191 	 98.7542 	 
H 	 11.1391 	 -1.74883 	 99.4401 	 
H 	 10.3358 	 -2.70249 	 98.1641 	 
H 	 4.13753 	 -2.33087 	 99.2524 	 
H 	 8.92035 	 -7.50927 	 103.341 	 
