34

S 	 -36.2684 	 69.3388 	 109.883 	 
C 	 -35.857 	 68.5457 	 108.419 	 
C 	 -35.2172 	 69.3994 	 107.507 	 
C 	 -34.9605 	 70.7085 	 108.104 	 
C 	 -35.6064 	 70.9195 	 109.342 	 
H 	 -34.2748 	 71.4686 	 107.705 	 
C 	 -34.7373 	 69.0348 	 106.103 	 
H 	 -34.7838 	 69.9918 	 105.667 	 
H 	 -35.3677 	 68.3513 	 105.597 	 
C 	 -33.2944 	 68.5469 	 106.202 	 
H 	 -32.641 	 69.2794 	 106.776 	 
H 	 -33.1196 	 67.4928 	 106.56 	 
C 	 -32.7472 	 68.5495 	 104.774 	 
H 	 -31.7163 	 68.2103 	 104.681 	 
H 	 -33.3616 	 67.9527 	 104.145 	 
H 	 -32.5556 	 69.5966 	 104.432 	 
S 	 -34.8134 	 71.6296 	 111.847 	 
C 	 -34.5779 	 73.3019 	 112.289 	 
C 	 -34.8518 	 74.1229 	 111.198 	 
C 	 -35.3324 	 73.4434 	 110.033 	 
C 	 -35.405 	 72.0315 	 110.255 	 
H 	 -34.6571 	 75.1109 	 111.283 	 
C 	 -35.8687 	 74.1391 	 108.739 	 
H 	 -36.0921 	 73.4347 	 107.994 	 
H 	 -34.9809 	 74.7011 	 108.412 	 
C 	 -37.0112 	 75.0729 	 109.107 	 
H 	 -37.4279 	 75.4534 	 108.169 	 
H 	 -36.6481 	 75.8946 	 109.729 	 
C 	 -38.2539 	 74.3671 	 109.725 	 
H 	 -39.0729 	 75.0671 	 109.661 	 
H 	 -38.0321 	 74.0138 	 110.714 	 
H 	 -38.3636 	 73.5207 	 109.076 	 
H 	 -36.189 	 67.511 	 108.294 	 
H 	 -34.059 	 73.6457 	 113.184 	 
