34

S 	 -100.892 	 51.9222 	 117.047 	 
C 	 -99.3455 	 51.2135 	 117.189 	 
C 	 -98.3803 	 52.1136 	 116.907 	 
C 	 -98.8808 	 53.4387 	 116.661 	 
C 	 -100.205 	 53.5385 	 116.86 	 
H 	 -98.2005 	 54.2554 	 116.526 	 
C 	 -96.9058 	 51.7338 	 116.998 	 
H 	 -96.7042 	 51.2344 	 117.953 	 
H 	 -96.4601 	 52.7005 	 117.11 	 
C 	 -96.1757 	 50.883 	 115.866 	 
H 	 -96.0824 	 51.4288 	 114.92 	 
H 	 -95.1477 	 50.8031 	 116.23 	 
C 	 -96.815 	 49.5245 	 115.761 	 
H 	 -97.8515 	 49.6618 	 115.383 	 
H 	 -96.1508 	 48.8799 	 115.093 	 
H 	 -96.9548 	 49.0052 	 116.708 	 
S 	 -102.313 	 54.8347 	 115.956 	 
C 	 -103.006 	 56.2034 	 116.842 	 
C 	 -102.071 	 56.6965 	 117.749 	 
C 	 -100.911 	 55.8735 	 117.874 	 
C 	 -100.977 	 54.7155 	 117.035 	 
H 	 -102.286 	 57.6329 	 118.225 	 
C 	 -99.9506 	 56.0114 	 119.036 	 
H 	 -99.2609 	 55.1786 	 118.956 	 
H 	 -100.653 	 55.7271 	 119.871 	 
C 	 -99.253 	 57.3601 	 119.286 	 
H 	 -100.059 	 58.0788 	 119.174 	 
H 	 -98.5523 	 57.6605 	 118.503 	 
C 	 -98.6999 	 57.2977 	 120.687 	 
H 	 -98.158 	 58.2255 	 120.797 	 
H 	 -98.0939 	 56.4114 	 120.94 	 
H 	 -99.5001 	 57.3281 	 121.484 	 
H 	 -99.2716 	 50.1679 	 117.362 	 
H 	 -103.929 	 56.6956 	 116.679 	 
