34

S 	 -37.2268 	 30.0051 	 79.7808 	 
C 	 -36.3596 	 30.5573 	 78.3031 	 
C 	 -36.2402 	 31.974 	 78.3802 	 
C 	 -37.0249 	 32.585 	 79.4761 	 
C 	 -37.7115 	 31.6307 	 80.2572 	 
H 	 -36.941 	 33.6279 	 79.7509 	 
C 	 -35.5105 	 32.9228 	 77.4655 	 
H 	 -34.7386 	 32.3927 	 76.8954 	 
H 	 -34.8245 	 33.4981 	 78.0821 	 
C 	 -36.4794 	 33.7976 	 76.6639 	 
H 	 -37.0217 	 33.1846 	 75.9418 	 
H 	 -37.2776 	 34.1886 	 77.3389 	 
C 	 -35.7245 	 34.9203 	 75.8556 	 
H 	 -35.1136 	 34.5743 	 74.9897 	 
H 	 -36.4229 	 35.6254 	 75.4235 	 
H 	 -35.2112 	 35.5892 	 76.4683 	 
S 	 -37.6095 	 31.4256 	 82.9731 	 
C 	 -38.9276 	 31.9142 	 83.9558 	 
C 	 -39.926 	 32.4697 	 83.1806 	 
C 	 -39.6201 	 32.4495 	 81.7698 	 
C 	 -38.382 	 31.8382 	 81.5427 	 
H 	 -40.8399 	 32.8269 	 83.6823 	 
C 	 -40.5855 	 33.0481 	 80.7803 	 
H 	 -40.1259 	 33.8016 	 80.0999 	 
H 	 -41.3137 	 33.6624 	 81.3898 	 
C 	 -41.3788 	 32.0253 	 79.8708 	 
H 	 -42.0549 	 31.5685 	 80.6049 	 
H 	 -40.702 	 31.3601 	 79.3799 	 
C 	 -42.268 	 32.7139 	 78.8582 	 
H 	 -43.0864 	 32.1876 	 78.3859 	 
H 	 -41.7346 	 33.1641 	 78.1 	 
H 	 -42.7171 	 33.5838 	 79.2395 	 
H 	 -35.6572 	 29.9034 	 77.7185 	 
H 	 -38.9682 	 32.0903 	 85.0712 	 
