34

S 	 7.41081 	 -9.56425 	 63.6201 	 
C 	 6.94646 	 -8.84912 	 65.1542 	 
C 	 7.62622 	 -9.4646 	 66.2634 	 
C 	 8.76392 	 -10.2216 	 65.791 	 
C 	 8.85806 	 -10.2649 	 64.3829 	 
H 	 9.45417 	 -10.7859 	 66.3346 	 
C 	 7.37488 	 -9.31892 	 67.8232 	 
H 	 7.78755 	 -10.195 	 68.2865 	 
H 	 6.33074 	 -9.32576 	 68.0619 	 
C 	 8.00714 	 -8.04708 	 68.449 	 
H 	 9.09496 	 -8.06138 	 68.163 	 
H 	 7.57967 	 -7.22454 	 67.8884 	 
C 	 7.77405 	 -7.97459 	 69.946 	 
H 	 8.07584 	 -6.98851 	 70.3219 	 
H 	 6.83716 	 -8.23638 	 70.3777 	 
H 	 8.46625 	 -8.66474 	 70.4284 	 
S 	 10.3049 	 -10.2055 	 62.0954 	 
C 	 11.4058 	 -11.4761 	 61.6484 	 
C 	 11.5968 	 -12.3386 	 62.6752 	 
C 	 10.7098 	 -12.1046 	 63.7961 	 
C 	 9.90677 	 -10.9697 	 63.6064 	 
H 	 12.4035 	 -13.1149 	 62.5036 	 
C 	 10.709 	 -13.0924 	 64.9612 	 
H 	 10.8337 	 -12.5499 	 65.8913 	 
H 	 11.5651 	 -13.727 	 65.0151 	 
C 	 9.44239 	 -14.0574 	 64.8825 	 
H 	 9.32209 	 -14.6743 	 63.9508 	 
H 	 8.51926 	 -13.453 	 64.8559 	 
C 	 9.4472 	 -14.9118 	 66.2159 	 
H 	 10.2596 	 -15.5719 	 66.4606 	 
H 	 8.53106 	 -15.5734 	 66.2399 	 
H 	 9.37456 	 -14.237 	 67.0494 	 
H 	 6.01585 	 -8.28387 	 65.2204 	 
H 	 12.0087 	 -11.4408 	 60.7995 	 
