34

S 	 40.2985 	 18.4875 	 48.3529 	 
C 	 39.1218 	 17.4899 	 47.5278 	 
C 	 38.9808 	 17.8311 	 46.2434 	 
C 	 39.8998 	 18.7519 	 45.7947 	 
C 	 40.7971 	 19.0707 	 46.7835 	 
H 	 40.0411 	 19.1295 	 44.8049 	 
C 	 37.9104 	 17.287 	 45.3261 	 
H 	 36.9718 	 17.2393 	 45.83 	 
H 	 38.0937 	 16.2709 	 45.1648 	 
C 	 37.5556 	 18.0597 	 44.0716 	 
H 	 38.4693 	 18.0763 	 43.4683 	 
H 	 36.9054 	 17.3596 	 43.5122 	 
C 	 36.9462 	 19.4525 	 44.3786 	 
H 	 36.5107 	 19.4858 	 45.3521 	 
H 	 37.7376 	 20.1474 	 44.4173 	 
H 	 36.1412 	 19.6528 	 43.7071 	 
S 	 43.5968 	 19.324 	 46.7927 	 
C 	 44.2632 	 20.9506 	 46.4705 	 
C 	 43.2964 	 21.9339 	 46.2817 	 
C 	 41.9489 	 21.3597 	 46.3515 	 
C 	 41.9097 	 19.9949 	 46.6531 	 
H 	 43.6549 	 22.9309 	 46.0016 	 
C 	 40.7305 	 22.1697 	 46.1736 	 
H 	 40.6649 	 22.7427 	 47.1158 	 
H 	 39.8026 	 21.5775 	 46.2486 	 
C 	 40.816 	 23.1147 	 44.9249 	 
H 	 41.7473 	 23.6021 	 44.8125 	 
H 	 40.1669 	 23.9627 	 45.0878 	 
C 	 40.5265 	 22.4258 	 43.5841 	 
H 	 41.3188 	 21.8156 	 43.1082 	 
H 	 40.5455 	 23.2838 	 42.8961 	 
H 	 39.5723 	 21.8508 	 43.5765 	 
H 	 38.587 	 16.7418 	 48.0444 	 
H 	 45.3147 	 21.1786 	 46.5067 	 
