34

S 	 -2.41968 	 -8.94389 	 84.5463 	 
C 	 -2.00192 	 -10.2365 	 85.6265 	 
C 	 -2.99453 	 -10.4638 	 86.5408 	 
C 	 -4.0889 	 -9.56641 	 86.4127 	 
C 	 -3.97351 	 -8.78078 	 85.3004 	 
H 	 -4.8999 	 -9.44493 	 87.0969 	 
C 	 -2.87905 	 -11.5315 	 87.6654 	 
H 	 -3.14264 	 -12.5453 	 87.266 	 
H 	 -3.72674 	 -11.2481 	 88.2897 	 
C 	 -1.50299 	 -11.5867 	 88.3529 	 
H 	 -1.45916 	 -12.4885 	 88.8938 	 
H 	 -0.827006 	 -11.825 	 87.5088 	 
C 	 -1.07692 	 -10.4398 	 89.2833 	 
H 	 -1.86982 	 -10.2495 	 90.0211 	 
H 	 -0.267831 	 -10.8849 	 89.811 	 
H 	 -0.787443 	 -9.53029 	 88.7107 	 
S 	 -6.55651 	 -8.05695 	 84.6613 	 
C 	 -6.93545 	 -6.42087 	 84.7036 	 
C 	 -5.85907 	 -5.60389 	 84.8877 	 
C 	 -4.66759 	 -6.30194 	 85.039 	 
C 	 -4.87111 	 -7.653 	 84.9316 	 
H 	 -6.05201 	 -4.56956 	 84.9814 	 
C 	 -3.36752 	 -5.60986 	 85.2001 	 
H 	 -3.43481 	 -4.55555 	 85.1569 	 
H 	 -2.67714 	 -5.75839 	 84.3824 	 
C 	 -2.62741 	 -5.89291 	 86.4602 	 
H 	 -1.7561 	 -5.20346 	 86.4836 	 
H 	 -2.24085 	 -6.92996 	 86.4591 	 
C 	 -3.47801 	 -5.69919 	 87.6841 	 
H 	 -4.21575 	 -6.46364 	 87.8338 	 
H 	 -3.96672 	 -4.74677 	 87.6328 	 
H 	 -2.81641 	 -5.75967 	 88.5778 	 
H 	 -1.04251 	 -10.6673 	 85.5427 	 
H 	 -7.95214 	 -6.03796 	 84.5121 	 
