34

S 	 -112.441 	 52.8913 	 117.015 	 
C 	 -110.879 	 52.8344 	 117.728 	 
C 	 -109.974 	 53.8129 	 117.277 	 
C 	 -110.74 	 54.8146 	 116.56 	 
C 	 -112.081 	 54.4954 	 116.459 	 
H 	 -110.378 	 55.7602 	 116.089 	 
C 	 -108.422 	 53.7853 	 117.518 	 
H 	 -108.319 	 54.2492 	 118.493 	 
H 	 -108.09 	 54.5585 	 116.842 	 
C 	 -107.766 	 52.4408 	 117.43 	 
H 	 -106.741 	 52.6276 	 117.825 	 
H 	 -108.058 	 51.6519 	 118.082 	 
C 	 -107.543 	 51.9964 	 115.961 	 
H 	 -108.496 	 51.8956 	 115.46 	 
H 	 -106.855 	 52.7081 	 115.428 	 
H 	 -106.906 	 51.1075 	 115.88 	 
S 	 -113.798 	 54.4317 	 114.19 	 
C 	 -114.619 	 55.911 	 113.838 	 
C 	 -114.198 	 56.9591 	 114.614 	 
C 	 -113.313 	 56.5539 	 115.613 	 
C 	 -112.993 	 55.1883 	 115.593 	 
H 	 -114.513 	 58.003 	 114.478 	 
C 	 -112.875 	 57.5642 	 116.609 	 
H 	 -112.274 	 57.0299 	 117.365 	 
H 	 -113.652 	 58.0568 	 117.2 	 
C 	 -111.995 	 58.7053 	 115.961 	 
H 	 -111.31 	 58.2955 	 115.205 	 
H 	 -111.425 	 59.1009 	 116.784 	 
C 	 -112.823 	 59.8527 	 115.342 	 
H 	 -112.96 	 59.6295 	 114.286 	 
H 	 -112.22 	 60.8389 	 115.259 	 
H 	 -113.785 	 59.9691 	 115.744 	 
H 	 -110.521 	 52.0043 	 118.295 	 
H 	 -115.363 	 55.9977 	 113.003 	 
