34

S 	 -64.7451 	 47.3474 	 122.562 	 
C 	 -65.0189 	 48.811 	 123.427 	 
C 	 -66.3169 	 48.8903 	 123.886 	 
C 	 -67.1362 	 47.7851 	 123.441 	 
C 	 -66.4587 	 46.7973 	 122.741 	 
H 	 -68.1877 	 47.6643 	 123.643 	 
C 	 -66.8402 	 50.0803 	 124.737 	 
H 	 -67.8625 	 49.9749 	 125.047 	 
H 	 -66.7851 	 50.9398 	 124.069 	 
C 	 -66.1051 	 50.3912 	 126.073 	 
H 	 -66.0258 	 49.4394 	 126.701 	 
H 	 -65.0515 	 50.6105 	 125.852 	 
C 	 -66.8348 	 51.5052 	 126.863 	 
H 	 -67.8204 	 51.2495 	 127.211 	 
H 	 -66.1861 	 51.7648 	 127.708 	 
H 	 -66.9799 	 52.3383 	 126.257 	 
S 	 -65.6804 	 44.3188 	 121.804 	 
C 	 -66.898 	 43.0551 	 121.733 	 
C 	 -68.1265 	 43.5951 	 121.685 	 
C 	 -68.1913 	 44.9495 	 122.067 	 
C 	 -66.914 	 45.5006 	 122.234 	 
H 	 -68.9995 	 42.9478 	 121.536 	 
C 	 -69.4999 	 45.6686 	 122.134 	 
H 	 -69.8425 	 45.9321 	 123.175 	 
H 	 -70.2732 	 44.9112 	 121.919 	 
C 	 -69.6305 	 46.7344 	 121.123 	 
H 	 -69.407 	 46.3788 	 120.16 	 
H 	 -68.8991 	 47.5531 	 121.264 	 
C 	 -71.0098 	 47.4777 	 120.936 	 
H 	 -70.9766 	 47.9968 	 120.01 	 
H 	 -71.3106 	 48.1165 	 121.713 	 
H 	 -71.833 	 46.7643 	 120.881 	 
H 	 -64.1383 	 49.5046 	 123.655 	 
H 	 -66.6644 	 42.0338 	 121.542 	 
