34

S 	 2.02757 	 26.7589 	 67.683 	 
C 	 2.51575 	 25.0629 	 67.7981 	 
C 	 3.58647 	 24.7396 	 66.9377 	 
C 	 4.13953 	 25.9664 	 66.4133 	 
C 	 3.47878 	 27.1486 	 66.8209 	 
H 	 4.96842 	 26.1112 	 65.7427 	 
C 	 3.99583 	 23.3987 	 66.5926 	 
H 	 3.44549 	 23.359 	 65.6489 	 
H 	 3.6522 	 22.6394 	 67.2199 	 
C 	 5.50293 	 23.2396 	 66.3823 	 
H 	 5.64536 	 22.252 	 65.9552 	 
H 	 5.82599 	 23.9571 	 65.5764 	 
C 	 6.29373 	 23.5306 	 67.6856 	 
H 	 6.14014 	 24.5701 	 68.0319 	 
H 	 5.93635 	 22.8934 	 68.514 	 
H 	 7.31381 	 23.3111 	 67.5566 	 
S 	 2.41487 	 29.4956 	 65.8209 	 
C 	 3.49277 	 30.6701 	 65.1858 	 
C 	 4.76368 	 30.2519 	 65.1774 	 
C 	 4.99919 	 28.9594 	 65.8034 	 
C 	 3.80065 	 28.4201 	 66.2578 	 
H 	 5.49306 	 30.8507 	 64.6435 	 
C 	 6.39099 	 28.4775 	 65.9878 	 
H 	 6.33311 	 27.9033 	 66.8943 	 
H 	 7.12311 	 29.3604 	 66.2785 	 
C 	 7.10998 	 27.5446 	 65.0179 	 
H 	 7.52002 	 28.2184 	 64.3593 	 
H 	 6.48658 	 26.9633 	 64.4509 	 
C 	 8.21239 	 26.8455 	 65.7465 	 
H 	 8.8554 	 27.4351 	 66.4215 	 
H 	 8.97984 	 26.3937 	 65.0948 	 
H 	 7.63463 	 26.0369 	 66.2841 	 
H 	 1.93538 	 24.2719 	 68.3072 	 
H 	 3.28652 	 31.5247 	 64.5233 	 
