34

S 	 34.5566 	 -4.16481 	 70.36 	 
C 	 34.9522 	 -2.55774 	 70.9338 	 
C 	 36.2924 	 -2.2413 	 70.8735 	 
C 	 36.9512 	 -3.24163 	 70.1296 	 
C 	 36.2189 	 -4.37396 	 69.8699 	 
H 	 37.9752 	 -3.08606 	 69.8403 	 
C 	 36.911 	 -0.904 	 71.2872 	 
H 	 36.0977 	 -0.360901 	 71.7019 	 
H 	 37.1276 	 -0.349992 	 70.4466 	 
C 	 38.1545 	 -0.918002 	 72.1166 	 
H 	 37.9316 	 -1.40626 	 73.0693 	 
H 	 38.975 	 -1.41377 	 71.6706 	 
C 	 38.619 	 0.536675 	 72.4724 	 
H 	 37.7832 	 1.03934 	 72.8689 	 
H 	 39.334 	 0.480952 	 73.2632 	 
H 	 38.9453 	 1.00103 	 71.5452 	 
S 	 36.0965 	 -7.08426 	 70.1707 	 
C 	 36.7792 	 -8.16478 	 68.9357 	 
C 	 37.6435 	 -7.3804 	 68.1462 	 
C 	 37.4576 	 -5.92718 	 68.2647 	 
C 	 36.656 	 -5.62185 	 69.311 	 
H 	 38.3313 	 -7.78872 	 67.4446 	 
C 	 38.1034 	 -4.94094 	 67.3195 	 
H 	 38.6484 	 -5.52151 	 66.5889 	 
H 	 38.7834 	 -4.27282 	 67.9231 	 
C 	 37.0698 	 -4.05937 	 66.5353 	 
H 	 36.2774 	 -3.62086 	 67.1575 	 
H 	 36.5766 	 -4.79663 	 65.9341 	 
C 	 37.7023 	 -3.032 	 65.5595 	 
H 	 38.4263 	 -2.50691 	 66.1872 	 
H 	 37.0367 	 -2.39409 	 64.9179 	 
H 	 38.2638 	 -3.7014 	 64.8515 	 
H 	 34.1986 	 -1.92233 	 71.3067 	 
H 	 36.6231 	 -9.26527 	 68.9383 	 
