34

S 	 0.0365747 	 -23.2519 	 59.3693 	 
C 	 0.150454 	 -23.7297 	 57.7247 	 
C 	 -0.428259 	 -22.6886 	 56.9263 	 
C 	 -0.783327 	 -21.5109 	 57.6539 	 
C 	 -0.64422 	 -21.6216 	 59.0624 	 
H 	 -1.26836 	 -20.65 	 57.2636 	 
C 	 -0.68623 	 -22.7555 	 55.3743 	 
H 	 0.123559 	 -23.3859 	 55.0105 	 
H 	 -0.647875 	 -21.8084 	 54.8809 	 
C 	 -1.9942 	 -23.3303 	 54.9371 	 
H 	 -1.86778 	 -23.4304 	 53.8178 	 
H 	 -2.08209 	 -24.3706 	 55.1831 	 
C 	 -3.27124 	 -22.6847 	 55.315 	 
H 	 -4.04548 	 -23.1371 	 54.7151 	 
H 	 -3.45665 	 -22.743 	 56.3638 	 
H 	 -3.21095 	 -21.6541 	 54.9536 	 
S 	 -1.37403 	 -21.3698 	 61.7281 	 
C 	 -1.37555 	 -19.75 	 62.4626 	 
C 	 -1.04737 	 -18.7454 	 61.5799 	 
C 	 -0.808319 	 -19.243 	 60.2434 	 
C 	 -0.941425 	 -20.635 	 60.1279 	 
H 	 -1.02953 	 -17.718 	 61.9028 	 
C 	 -0.210343 	 -18.3954 	 59.1741 	 
H 	 0.0390575 	 -19.01 	 58.2882 	 
H 	 0.804012 	 -18.2184 	 59.6187 	 
C 	 -0.952262 	 -17.0971 	 58.9207 	 
H 	 -0.324656 	 -16.4576 	 58.3194 	 
H 	 -1.19723 	 -16.5049 	 59.8343 	 
C 	 -2.22266 	 -17.4072 	 58.1207 	 
H 	 -2.85844 	 -16.5798 	 57.8713 	 
H 	 -2.80418 	 -18.1462 	 58.7088 	 
H 	 -2.02703 	 -18.028 	 57.2477 	 
H 	 0.553092 	 -24.5551 	 57.2273 	 
H 	 -1.71849 	 -19.5421 	 63.479 	 
