34

S 	 -7.30118 	 62.4633 	 53.1095 	 
C 	 -7.27473 	 62.1925 	 54.8646 	 
C 	 -6.09331 	 61.7212 	 55.3182 	 
C 	 -5.17868 	 61.741 	 54.2497 	 
C 	 -5.62649 	 62.2681 	 53.0159 	 
H 	 -4.19403 	 61.4259 	 54.3894 	 
C 	 -5.7076 	 61.3782 	 56.7423 	 
H 	 -6.0214 	 62.0765 	 57.5018 	 
H 	 -4.67542 	 61.5006 	 56.6996 	 
C 	 -6.14839 	 59.9734 	 57.1937 	 
H 	 -7.22092 	 60.0046 	 57.0393 	 
H 	 -5.75826 	 59.2466 	 56.4738 	 
C 	 -5.77976 	 59.5281 	 58.594 	 
H 	 -6.55334 	 59.9156 	 59.3176 	 
H 	 -5.93684 	 58.4988 	 58.6724 	 
H 	 -4.75134 	 59.641 	 58.8893 	 
S 	 -4.00351 	 60.7604 	 51.456 	 
C 	 -3.3919 	 61.4006 	 49.938 	 
C 	 -3.88804 	 62.6263 	 49.7032 	 
C 	 -4.74149 	 63.1769 	 50.7926 	 
C 	 -4.90729 	 62.2304 	 51.7957 	 
H 	 -3.65363 	 63.1364 	 48.7612 	 
C 	 -5.39254 	 64.4984 	 50.7127 	 
H 	 -6.3434 	 64.4121 	 51.1678 	 
H 	 -5.60671 	 64.7967 	 49.7066 	 
C 	 -4.71266 	 65.6628 	 51.4491 	 
H 	 -3.83116 	 65.9514 	 50.8277 	 
H 	 -4.32023 	 65.3709 	 52.3918 	 
C 	 -5.69377 	 66.825 	 51.5947 	 
H 	 -6.59489 	 66.636 	 52.246 	 
H 	 -6.08712 	 67.0376 	 50.558 	 
H 	 -5.07437 	 67.7455 	 51.8511 	 
H 	 -8.10674 	 62.3375 	 55.6035 	 
H 	 -2.98175 	 60.7834 	 49.1476 	 
