34

S 	 -7.45222 	 34.8072 	 55.0795 	 
C 	 -6.08584 	 34.2179 	 55.9359 	 
C 	 -5.33351 	 33.4075 	 55.0681 	 
C 	 -5.8253 	 33.4437 	 53.7293 	 
C 	 -6.92918 	 34.2279 	 53.5134 	 
H 	 -5.30912 	 33.016 	 52.8776 	 
C 	 -3.97568 	 32.8589 	 55.47 	 
H 	 -4.01405 	 31.7976 	 55.3787 	 
H 	 -3.75821 	 33.0619 	 56.5365 	 
C 	 -2.79053 	 33.5124 	 54.7664 	 
H 	 -1.9279 	 33.0548 	 55.1286 	 
H 	 -2.84845 	 33.1949 	 53.7416 	 
C 	 -2.55686 	 35.0394 	 54.9777 	 
H 	 -2.64354 	 35.4003 	 55.9577 	 
H 	 -1.43027 	 35.2458 	 54.7599 	 
H 	 -3.28437 	 35.5957 	 54.4014 	 
S 	 -8.65268 	 35.9104 	 52.1285 	 
C 	 -8.87044 	 35.5861 	 50.4289 	 
C 	 -8.433 	 34.3453 	 50.0633 	 
C 	 -7.86007 	 33.6381 	 51.132 	 
C 	 -7.7369 	 34.4343 	 52.3021 	 
H 	 -8.51822 	 34.0916 	 49.0212 	 
C 	 -7.38071 	 32.1868 	 50.9146 	 
H 	 -8.0808 	 31.6064 	 51.5353 	 
H 	 -6.45652 	 32.2033 	 51.4574 	 
C 	 -7.1139 	 31.7178 	 49.4078 	 
H 	 -6.25866 	 32.2349 	 48.9524 	 
H 	 -7.93922 	 31.8875 	 48.7773 	 
C 	 -6.71082 	 30.2113 	 49.3444 	 
H 	 -5.72352 	 30.0909 	 49.823 	 
H 	 -6.5388 	 29.8783 	 48.2985 	 
H 	 -7.43027 	 29.5257 	 49.7481 	 
H 	 -5.96323 	 34.3779 	 56.9764 	 
H 	 -9.28873 	 36.287 	 49.7668 	 
