34

S 	 52.5891 	 18.1625 	 80.326 	 
C 	 53.7186 	 18.599 	 81.521 	 
C 	 53.1416 	 19.1728 	 82.6601 	 
C 	 51.7683 	 19.2997 	 82.471 	 
C 	 51.3003 	 18.8692 	 81.263 	 
H 	 51.1176 	 19.8646 	 83.1309 	 
C 	 53.871 	 19.7645 	 83.8464 	 
H 	 53.8145 	 20.8445 	 83.7853 	 
H 	 54.9364 	 19.5029 	 83.7332 	 
C 	 53.3545 	 19.1082 	 85.1733 	 
H 	 53.5973 	 19.7638 	 85.9992 	 
H 	 52.3092 	 19.2199 	 85.1614 	 
C 	 53.661 	 17.6276 	 85.1648 	 
H 	 53.0697 	 17.084 	 84.4535 	 
H 	 54.668 	 17.4449 	 84.8116 	 
H 	 53.6656 	 17.0917 	 86.1748 	 
S 	 49.2557 	 17.2839 	 80.4669 	 
C 	 47.7159 	 18.0074 	 80.2095 	 
C 	 47.6727 	 19.36 	 80.2595 	 
C 	 49.0188 	 19.8628 	 80.4831 	 
C 	 49.9442 	 18.8494 	 80.7133 	 
H 	 46.7904 	 19.9276 	 80.0602 	 
C 	 49.3361 	 21.3528 	 80.5204 	 
H 	 49.1482 	 21.7304 	 79.5331 	 
H 	 50.431 	 21.3616 	 80.6974 	 
C 	 48.5877 	 22.2315 	 81.564 	 
H 	 49.448 	 22.6891 	 82.143 	 
H 	 48.0091 	 21.62 	 82.2861 	 
C 	 47.6839 	 23.268 	 80.9004 	 
H 	 48.1639 	 23.6923 	 79.9805 	 
H 	 47.55 	 24.1179 	 81.5548 	 
H 	 46.7367 	 22.8147 	 80.6876 	 
H 	 54.7371 	 18.3831 	 81.4509 	 
H 	 46.8826 	 17.4681 	 79.8409 	 
