34

S 	 50.9661 	 22.9592 	 44.1874 	 
C 	 50.8596 	 21.2726 	 43.8741 	 
C 	 49.5401 	 20.9008 	 43.9237 	 
C 	 48.6246 	 21.9411 	 44.3468 	 
C 	 49.304 	 23.0743 	 44.7475 	 
H 	 47.5873 	 21.915 	 44.4833 	 
C 	 49.0469 	 19.5675 	 43.5063 	 
H 	 48.1113 	 19.4054 	 44.0725 	 
H 	 49.7045 	 18.8734 	 44.053 	 
C 	 48.8708 	 19.3282 	 41.9788 	 
H 	 48.017 	 19.805 	 41.5686 	 
H 	 49.7309 	 19.7643 	 41.4755 	 
C 	 48.7679 	 17.8637 	 41.7145 	 
H 	 49.5991 	 17.3008 	 42.0645 	 
H 	 47.9086 	 17.4207 	 42.3031 	 
H 	 48.5888 	 17.6183 	 40.674 	 
S 	 48.7397 	 25.7057 	 44.3654 	 
C 	 48.1763 	 26.7046 	 45.665 	 
C 	 48.0659 	 25.9124 	 46.8314 	 
C 	 48.3416 	 24.544 	 46.6543 	 
C 	 48.711 	 24.2516 	 45.3498 	 
H 	 47.8361 	 26.4034 	 47.701 	 
C 	 48.1227 	 23.5297 	 47.7787 	 
H 	 47.5027 	 22.7456 	 47.3254 	 
H 	 47.5137 	 24.0809 	 48.5241 	 
C 	 49.4034 	 23.0354 	 48.5177 	 
H 	 50.1744 	 22.8123 	 47.786 	 
H 	 49.0966 	 22.1097 	 48.9628 	 
C 	 49.9725 	 24.0638 	 49.5181 	 
H 	 49.3156 	 24.0804 	 50.374 	 
H 	 50.2047 	 25.0627 	 49.1199 	 
H 	 50.8768 	 23.6708 	 49.852 	 
H 	 51.6333 	 20.5584 	 43.7288 	 
H 	 47.8744 	 27.7576 	 45.5761 	 
