34

S 	 14.3155 	 10.319 	 89.8281 	 
C 	 15.5974 	 9.12659 	 89.9666 	 
C 	 15.259 	 7.89005 	 89.5226 	 
C 	 13.9042 	 7.8554 	 89.058 	 
C 	 13.2271 	 9.05113 	 89.3524 	 
H 	 13.4 	 6.97874 	 88.7123 	 
C 	 16.1122 	 6.65544 	 89.4665 	 
H 	 15.4532 	 5.76361 	 89.469 	 
H 	 16.8444 	 6.7374 	 90.3215 	 
C 	 16.8514 	 6.46108 	 88.1343 	 
H 	 16.2215 	 6.62713 	 87.2236 	 
H 	 17.6583 	 7.21868 	 87.9894 	 
C 	 17.5186 	 5.07043 	 88.0219 	 
H 	 16.8325 	 4.29265 	 87.7882 	 
H 	 18.2062 	 5.10783 	 87.1386 	 
H 	 18.1906 	 4.80201 	 88.8707 	 
S 	 11.2072 	 10.6999 	 88.392 	 
C 	 9.47981 	 10.2523 	 88.5818 	 
C 	 9.39681 	 8.98792 	 89.1816 	 
C 	 10.6641 	 8.48526 	 89.6741 	 
C 	 11.8138 	 9.21914 	 89.2178 	 
H 	 8.44791 	 8.44263 	 89.4039 	 
C 	 10.7697 	 7.1105 	 90.318 	 
H 	 11.2741 	 6.45346 	 89.6714 	 
H 	 9.74997 	 6.71015 	 90.4249 	 
C 	 11.5033 	 6.9305 	 91.6772 	 
H 	 11.203 	 7.62642 	 92.4313 	 
H 	 12.5909 	 7.10669 	 91.484 	 
C 	 11.3521 	 5.5038 	 92.1646 	 
H 	 11.6719 	 4.70735 	 91.4668 	 
H 	 10.3082 	 5.28683 	 92.4997 	 
H 	 12.0392 	 5.21967 	 92.9873 	 
H 	 16.5461 	 9.25216 	 90.4781 	 
H 	 8.66569 	 10.8443 	 88.1853 	 
