34

S 	 8.69327 	 21.7811 	 59.214 	 
C 	 9.08776 	 23.1644 	 58.2199 	 
C 	 8.12243 	 23.3657 	 57.2793 	 
C 	 7.00381 	 22.5397 	 57.4978 	 
C 	 7.05481 	 21.6801 	 58.59 	 
H 	 6.11184 	 22.5575 	 56.925 	 
C 	 8.07994 	 24.3935 	 56.2359 	 
H 	 7.39758 	 25.2139 	 56.5114 	 
H 	 7.78354 	 23.8673 	 55.3721 	 
C 	 9.29079 	 25.1907 	 55.8176 	 
H 	 8.82063 	 25.9288 	 55.1907 	 
H 	 9.65273 	 25.8425 	 56.605 	 
C 	 10.3676 	 24.2907 	 55.1617 	 
H 	 10.8747 	 23.6002 	 55.8063 	 
H 	 9.88757 	 23.6992 	 54.3871 	 
H 	 11.0763 	 24.95 	 54.7028 	 
S 	 6.66891 	 19.2123 	 59.7775 	 
C 	 5.06887 	 18.5415 	 59.7304 	 
C 	 4.21897 	 19.3265 	 58.9808 	 
C 	 4.72637 	 20.606 	 58.6538 	 
C 	 6.08695 	 20.6752 	 58.9219 	 
H 	 3.27745 	 18.8016 	 58.953 	 
C 	 3.83716 	 21.6501 	 58.1045 	 
H 	 3.77203 	 21.5966 	 57.0137 	 
H 	 4.34379 	 22.6262 	 58.3791 	 
C 	 2.37399 	 21.6824 	 58.6744 	 
H 	 1.91298 	 20.648 	 58.6373 	 
H 	 1.67613 	 22.3595 	 58.1079 	 
C 	 2.28402 	 22.1768 	 60.1341 	 
H 	 2.99434 	 21.5225 	 60.7531 	 
H 	 1.24395 	 22.0072 	 60.4934 	 
H 	 2.53972 	 23.2747 	 60.3237 	 
H 	 10.1082 	 23.5765 	 58.0695 	 
H 	 4.77135 	 17.6081 	 60.2616 	 
