34

S 	 5.81917 	 25.6395 	 66.1017 	 
C 	 5.86525 	 25.4829 	 64.3246 	 
C 	 6.79605 	 26.3578 	 63.779 	 
C 	 7.35753 	 27.2592 	 64.7939 	 
C 	 7.01036 	 26.9732 	 66.0952 	 
H 	 8.12432 	 28.023 	 64.6436 	 
C 	 7.10923 	 26.4599 	 62.2845 	 
H 	 7.38522 	 27.5709 	 62.2883 	 
H 	 6.30454 	 26.3497 	 61.5593 	 
C 	 8.28708 	 25.6352 	 61.8207 	 
H 	 8.46797 	 25.7168 	 60.7882 	 
H 	 9.19334 	 26.102 	 62.3782 	 
C 	 8.13362 	 24.1388 	 62.1706 	 
H 	 8.73332 	 23.4737 	 61.593 	 
H 	 8.46464 	 24.0188 	 63.1761 	 
H 	 7.11196 	 23.7408 	 62.1162 	 
S 	 7.83267 	 26.5177 	 68.7176 	 
C 	 8.7761 	 27.7239 	 69.4813 	 
C 	 8.69866 	 28.9435 	 68.8464 	 
C 	 8.05195 	 28.8602 	 67.5626 	 
C 	 7.56904 	 27.5837 	 67.3264 	 
H 	 9.08473 	 29.8245 	 69.3295 	 
C 	 7.75882 	 30.1434 	 66.8022 	 
H 	 7.54639 	 30.8481 	 67.5838 	 
H 	 6.78753 	 29.9589 	 66.3257 	 
C 	 8.76785 	 30.7874 	 65.8485 	 
H 	 9.03578 	 29.9913 	 65.1531 	 
H 	 9.72179 	 30.9888 	 66.4257 	 
C 	 8.37073 	 32.1116 	 65.2482 	 
H 	 7.36163 	 32.1407 	 64.843 	 
H 	 9.15212 	 32.4993 	 64.5851 	 
H 	 8.36297 	 32.8855 	 66.0527 	 
H 	 5.2817 	 24.7539 	 63.7932 	 
H 	 9.07965 	 27.6614 	 70.5283 	 
