34

S 	 35.0968 	 29.5277 	 54.1014 	 
C 	 36.5947 	 29.7414 	 53.4174 	 
C 	 36.9239 	 28.8719 	 52.3795 	 
C 	 35.8221 	 28.041 	 52.0831 	 
C 	 34.7951 	 28.1606 	 52.984 	 
H 	 35.7774 	 27.4226 	 51.2058 	 
C 	 38.2029 	 28.8922 	 51.5667 	 
H 	 38.4898 	 29.9114 	 51.4452 	 
H 	 38.0059 	 28.6443 	 50.5519 	 
C 	 39.405 	 28.0669 	 52.1606 	 
H 	 39.1846 	 26.943 	 52.209 	 
H 	 40.2458 	 28.385 	 51.4924 	 
C 	 39.7587 	 28.3684 	 53.5699 	 
H 	 40.8108 	 28.0112 	 53.7658 	 
H 	 39.6827 	 29.4751 	 53.7083 	 
H 	 39.0999 	 27.8695 	 54.3166 	 
S 	 33.393 	 26.6419 	 54.8406 	 
C 	 32.504 	 25.2709 	 54.1964 	 
C 	 32.1198 	 25.4564 	 52.8961 	 
C 	 32.8506 	 26.55 	 52.2769 	 
C 	 33.6825 	 27.1691 	 53.1832 	 
H 	 31.3773 	 24.8361 	 52.468 	 
C 	 32.5503 	 27.0589 	 50.8203 	 
H 	 32.8682 	 28.0524 	 50.72 	 
H 	 31.4928 	 27.1488 	 50.8196 	 
C 	 33.117 	 26.0034 	 49.8222 	 
H 	 32.5005 	 25.1546 	 50.1296 	 
H 	 34.1712 	 25.8083 	 50.0128 	 
C 	 32.8095 	 26.3336 	 48.3532 	 
H 	 32.8573 	 25.303 	 47.8244 	 
H 	 33.5558 	 27.0285 	 48.0205 	 
H 	 31.8277 	 26.8258 	 48.1125 	 
H 	 37.1568 	 30.5819 	 53.8102 	 
H 	 32.0372 	 24.4615 	 54.7351 	 
