34

S 	 41.1132 	 13.2755 	 86.3683 	 
C 	 40.9173 	 14.7353 	 85.4982 	 
C 	 40.5001 	 14.4176 	 84.1884 	 
C 	 40.4564 	 12.9708 	 83.9391 	 
C 	 40.8705 	 12.2531 	 85.0366 	 
H 	 40.0662 	 12.438 	 83.0218 	 
C 	 40.0965 	 15.3542 	 83.0916 	 
H 	 40.2827 	 14.9201 	 82.0851 	 
H 	 40.6751 	 16.3148 	 83.1237 	 
C 	 38.5775 	 15.7913 	 83.0049 	 
H 	 38.3724 	 16.433 	 83.9017 	 
H 	 38.3907 	 16.4336 	 82.1769 	 
C 	 37.4707 	 14.7513 	 82.9891 	 
H 	 36.4261 	 15.1088 	 83.128 	 
H 	 37.5616 	 14.1439 	 82.0924 	 
H 	 37.6881 	 14.1748 	 83.8854 	 
S 	 42.2175 	 10.1948 	 83.9095 	 
C 	 42.2833 	 8.66935 	 84.6941 	 
C 	 41.2581 	 8.56186 	 85.5621 	 
C 	 40.686 	 9.78247 	 85.9792 	 
C 	 41.1292 	 10.8158 	 85.1164 	 
H 	 40.9297 	 7.65195 	 86.0176 	 
C 	 39.6805 	 10.0377 	 87.0997 	 
H 	 40.0683 	 10.8495 	 87.7779 	 
H 	 39.5268 	 9.17533 	 87.6715 	 
C 	 38.3666 	 10.6614 	 86.77 	 
H 	 38.53 	 11.7256 	 86.487 	 
H 	 37.7776 	 10.7063 	 87.7235 	 
C 	 37.6303 	 10.0488 	 85.6323 	 
H 	 37.2022 	 9.14859 	 85.979 	 
H 	 38.1854 	 9.77021 	 84.8162 	 
H 	 36.9044 	 10.6892 	 85.2113 	 
H 	 41.2578 	 15.6843 	 85.805 	 
H 	 42.6542 	 7.73404 	 84.4185 	 
