34

S 	 25.6045 	 31.7532 	 58.7856 	 
C 	 25.7584 	 30.9212 	 57.3171 	 
C 	 26.9905 	 30.9433 	 56.8316 	 
C 	 27.8709 	 31.8654 	 57.461 	 
C 	 27.2195 	 32.3667 	 58.6044 	 
H 	 28.9731 	 32.0185 	 57.2305 	 
C 	 27.4198 	 30.142 	 55.6482 	 
H 	 27.8553 	 30.8743 	 55.0322 	 
H 	 26.6398 	 29.7852 	 54.996 	 
C 	 28.3238 	 28.9409 	 56.0928 	 
H 	 28.8791 	 29.1782 	 57.0328 	 
H 	 27.6846 	 28.1024 	 56.3531 	 
C 	 29.3247 	 28.504 	 55.0351 	 
H 	 29.7701 	 27.5949 	 55.4581 	 
H 	 28.8885 	 28.2231 	 54.05 	 
H 	 30.116 	 29.2356 	 54.8331 	 
S 	 27.0721 	 34.9024 	 59.6969 	 
C 	 28.3548 	 35.5116 	 60.8406 	 
C 	 29.2278 	 34.4739 	 61.033 	 
C 	 29.0254 	 33.3114 	 60.1513 	 
C 	 27.7949 	 33.3651 	 59.5041 	 
H 	 30.0377 	 34.5528 	 61.7469 	 
C 	 30.0365 	 32.1902 	 60.2537 	 
H 	 29.5925 	 31.2905 	 59.6852 	 
H 	 29.9901 	 32.0515 	 61.4083 	 
C 	 31.502 	 32.4335 	 59.7484 	 
H 	 32.1062 	 31.5263 	 59.7792 	 
H 	 31.9174 	 33.0637 	 60.4926 	 
C 	 31.6471 	 33.1548 	 58.3747 	 
H 	 31.0112 	 34.0369 	 58.3644 	 
H 	 31.2041 	 32.4065 	 57.6679 	 
H 	 32.6541 	 33.2998 	 57.9778 	 
H 	 24.982 	 30.2567 	 56.9004 	 
H 	 28.4271 	 36.4507 	 61.2409 	 
