34

S 	 7.21091 	 -14.6976 	 54.8522 	 
C 	 7.5337 	 -14.3786 	 56.597 	 
C 	 7.11717 	 -15.3906 	 57.4039 	 
C 	 6.64549 	 -16.4888 	 56.6064 	 
C 	 6.91428 	 -16.3764 	 55.2764 	 
H 	 6.2664 	 -17.3769 	 56.9691 	 
C 	 7.14792 	 -15.5082 	 58.9202 	 
H 	 8.1774 	 -15.4913 	 59.2513 	 
H 	 6.93107 	 -16.5508 	 59.1912 	 
C 	 6.41052 	 -14.4525 	 59.7161 	 
H 	 6.76655 	 -14.5689 	 60.7585 	 
H 	 6.60848 	 -13.5176 	 59.22 	 
C 	 4.85933 	 -14.6006 	 59.7356 	 
H 	 4.50859 	 -15.5601 	 60.1269 	 
H 	 4.28384 	 -13.7658 	 60.1399 	 
H 	 4.42554 	 -14.5902 	 58.765 	 
S 	 5.15167 	 -16.6008 	 53.0883 	 
C 	 4.995 	 -18.0723 	 52.2229 	 
C 	 5.70807 	 -19.0324 	 52.8997 	 
C 	 6.43361 	 -18.6174 	 54.0338 	 
C 	 6.36175 	 -17.2629 	 54.2363 	 
H 	 5.63202 	 -20.0219 	 52.4879 	 
C 	 7.14812 	 -19.6477 	 54.9886 	 
H 	 7.76254 	 -19.0014 	 55.6264 	 
H 	 7.7428 	 -20.3712 	 54.3876 	 
C 	 6.14111 	 -20.4313 	 55.8191 	 
H 	 5.52334 	 -21.0564 	 55.1496 	 
H 	 5.33388 	 -19.8088 	 56.2113 	 
C 	 6.64906 	 -21.1002 	 57.1043 	 
H 	 7.3234 	 -20.4807 	 57.7168 	 
H 	 7.12077 	 -22.0769 	 56.8878 	 
H 	 5.78448 	 -21.2083 	 57.734 	 
H 	 7.84178 	 -13.4527 	 56.994 	 
H 	 4.33482 	 -18.228 	 51.3434 	 
