34

S 	 20.0264 	 -7.83155 	 79.5417 	 
C 	 19.2443 	 -8.17992 	 78.0682 	 
C 	 17.8998 	 -8.50908 	 78.2664 	 
C 	 17.4806 	 -8.3632 	 79.6034 	 
C 	 18.5295 	 -8.12966 	 80.4851 	 
H 	 16.486 	 -8.49531 	 79.9466 	 
C 	 16.8991 	 -8.97268 	 77.247 	 
H 	 16.8445 	 -8.3274 	 76.3598 	 
H 	 15.8789 	 -8.90768 	 77.5802 	 
C 	 17.2324 	 -10.3604 	 76.8555 	 
H 	 18.2575 	 -10.3333 	 76.5218 	 
H 	 17.1751 	 -10.9992 	 77.732 	 
C 	 16.2903 	 -10.8625 	 75.7049 	 
H 	 16.5864 	 -11.9514 	 75.6417 	 
H 	 15.2117 	 -10.7055 	 75.8663 	 
H 	 16.4455 	 -10.3284 	 74.7392 	 
S 	 18.3427 	 -6.34993 	 82.5217 	 
C 	 18.2969 	 -6.97699 	 84.2147 	 
C 	 18.6488 	 -8.31812 	 84.2715 	 
C 	 18.6865 	 -8.92141 	 82.94 	 
C 	 18.42 	 -7.96483 	 81.9083 	 
H 	 18.8001 	 -8.85282 	 85.2126 	 
C 	 18.9028 	 -10.4352 	 82.703 	 
H 	 19.0447 	 -10.8118 	 83.6998 	 
H 	 19.803 	 -10.5488 	 82.102 	 
C 	 17.6759 	 -11.0309 	 82.0366 	 
H 	 17.7354 	 -10.6318 	 81.0036 	 
H 	 16.8201 	 -10.5096 	 82.3794 	 
C 	 17.609 	 -12.5642 	 82.0046 	 
H 	 18.5248 	 -12.9969 	 81.5832 	 
H 	 16.7941 	 -12.913 	 81.4788 	 
H 	 17.4911 	 -12.9648 	 83.0342 	 
H 	 19.8109 	 -8.31554 	 77.1263 	 
H 	 18.2186 	 -6.33182 	 85.078 	 
