34

S 	 -32.231 	 58.052 	 111.814 	 
C 	 -31.0522 	 56.9654 	 111.029 	 
C 	 -29.8893 	 56.799 	 111.703 	 
C 	 -29.8811 	 57.6344 	 112.876 	 
C 	 -31.057 	 58.328 	 113.082 	 
H 	 -29.0439 	 57.731 	 113.476 	 
C 	 -28.7769 	 55.8473 	 111.291 	 
H 	 -28.6384 	 55.8888 	 110.211 	 
H 	 -29.102 	 54.8024 	 111.553 	 
C 	 -27.4161 	 56.05 	 111.966 	 
H 	 -27.2196 	 57.1497 	 111.87 	 
H 	 -27.5342 	 55.9511 	 113.044 	 
C 	 -26.3062 	 55.2135 	 111.318 	 
H 	 -26.3179 	 55.3083 	 110.25 	 
H 	 -25.28 	 55.5811 	 111.625 	 
H 	 -26.354 	 54.1979 	 111.568 	 
S 	 -30.1225 	 60.5292 	 114.466 	 
C 	 -31.1399 	 61.215 	 115.799 	 
C 	 -32.2677 	 60.4982 	 115.904 	 
C 	 -32.3531 	 59.3881 	 115.003 	 
C 	 -31.2741 	 59.2762 	 114.187 	 
H 	 -33.0931 	 60.7926 	 116.529 	 
C 	 -33.6424 	 58.5694 	 114.949 	 
H 	 -33.8822 	 58.3583 	 116.045 	 
H 	 -33.3525 	 57.6285 	 114.564 	 
C 	 -34.876 	 59.1385 	 114.39 	 
H 	 -34.6651 	 59.4728 	 113.329 	 
H 	 -35.1329 	 60.0414 	 114.95 	 
C 	 -35.9027 	 57.9948 	 114.468 	 
H 	 -35.8314 	 57.3243 	 113.619 	 
H 	 -36.9213 	 58.4663 	 114.573 	 
H 	 -35.7232 	 57.3605 	 115.369 	 
H 	 -31.3577 	 56.5267 	 110.103 	 
H 	 -30.8258 	 62.0212 	 116.457 	 
