34

S 	 -73.022 	 45.983 	 123.456 	 
C 	 -73.7296 	 44.4073 	 123.63 	 
C 	 -73.465 	 43.9511 	 124.927 	 
C 	 -72.6783 	 44.8327 	 125.658 	 
C 	 -72.3259 	 46.0017 	 125.009 	 
H 	 -72.2388 	 44.6671 	 126.633 	 
C 	 -73.999 	 42.6973 	 125.468 	 
H 	 -74.8415 	 42.3476 	 124.823 	 
H 	 -74.2428 	 42.8858 	 126.514 	 
C 	 -72.9785 	 41.5141 	 125.564 	 
H 	 -72.2374 	 41.7365 	 126.323 	 
H 	 -73.4508 	 40.569 	 125.962 	 
C 	 -72.516 	 41.0231 	 124.207 	 
H 	 -71.6576 	 40.2812 	 124.318 	 
H 	 -73.3715 	 40.5722 	 123.684 	 
H 	 -72.183 	 41.9814 	 123.687 	 
S 	 -70.2482 	 47.7536 	 124.649 	 
C 	 -70.1801 	 49.1207 	 125.737 	 
C 	 -71.0456 	 48.9915 	 126.812 	 
C 	 -71.7867 	 47.7897 	 126.772 	 
C 	 -71.5661 	 47.0852 	 125.603 	 
H 	 -71.0602 	 49.6283 	 127.692 	 
C 	 -72.7351 	 47.453 	 127.889 	 
H 	 -72.187 	 47.2574 	 128.825 	 
H 	 -73.276 	 46.4956 	 127.693 	 
C 	 -73.8059 	 48.5038 	 128.056 	 
H 	 -73.2712 	 49.4078 	 128.145 	 
H 	 -74.3416 	 48.2479 	 129.008 	 
C 	 -74.8563 	 48.5926 	 126.979 	 
H 	 -74.4499 	 48.6605 	 125.961 	 
H 	 -75.4443 	 49.496 	 127.052 	 
H 	 -75.5253 	 47.7312 	 126.878 	 
H 	 -74.3381 	 43.9359 	 122.789 	 
H 	 -69.491 	 49.9176 	 125.69 	 
