34

S 	 -95.2781 	 40.4148 	 123.082 	 
C 	 -93.9122 	 39.7993 	 122.155 	 
C 	 -93.9306 	 40.2979 	 120.879 	 
C 	 -95.0695 	 41.062 	 120.619 	 
C 	 -95.9059 	 41.3268 	 121.69 	 
H 	 -95.3383 	 41.4723 	 119.667 	 
C 	 -92.9015 	 40.0067 	 119.866 	 
H 	 -92.2614 	 40.9094 	 119.71 	 
H 	 -93.326 	 39.8103 	 118.882 	 
C 	 -92.0747 	 38.8055 	 120.225 	 
H 	 -91.5167 	 39.0862 	 121.05 	 
H 	 -92.7013 	 37.8982 	 120.457 	 
C 	 -91.1117 	 38.3671 	 119.043 	 
H 	 -90.2552 	 39.0646 	 118.978 	 
H 	 -90.7083 	 37.3965 	 119.244 	 
H 	 -91.6707 	 38.2375 	 118.09 	 
S 	 -98.6851 	 41.2405 	 121.975 	 
C 	 -99.6049 	 42.6893 	 121.909 	 
C 	 -98.7985 	 43.7816 	 121.609 	 
C 	 -97.417 	 43.4127 	 121.448 	 
C 	 -97.1553 	 42.0802 	 121.719 	 
H 	 -99.1422 	 44.8018 	 121.606 	 
C 	 -96.4021 	 44.5137 	 121.105 	 
H 	 -95.3276 	 44.211 	 121.15 	 
H 	 -96.4687 	 45.1651 	 121.975 	 
C 	 -96.65 	 45.3255 	 119.859 	 
H 	 -97.543 	 45.9094 	 119.982 	 
H 	 -96.8422 	 44.6905 	 118.985 	 
C 	 -95.4034 	 46.0308 	 119.284 	 
H 	 -94.6789 	 45.2208 	 119.003 	 
H 	 -94.9437 	 46.6546 	 120.017 	 
H 	 -95.6246 	 46.6137 	 118.429 	 
H 	 -93.1017 	 39.182 	 122.557 	 
H 	 -100.616 	 42.7308 	 122.176 	 
