34

S 	 29.1432 	 -9.43261 	 79.85 	 
C 	 30.2359 	 -9.26578 	 78.5447 	 
C 	 30.5974 	 -7.9251 	 78.378 	 
C 	 29.9229 	 -7.04988 	 79.2862 	 
C 	 29.0736 	 -7.70179 	 80.158 	 
H 	 30.0548 	 -5.91658 	 79.3351 	 
C 	 31.573 	 -7.3707 	 77.385 	 
H 	 31.8723 	 -8.16414 	 76.6466 	 
H 	 32.4171 	 -7.16034 	 77.9678 	 
C 	 31.0989 	 -6.16094 	 76.6363 	 
H 	 30.8433 	 -5.24607 	 77.1847 	 
H 	 32.0503 	 -5.9608 	 76.0012 	 
C 	 29.8837 	 -6.41405 	 75.6836 	 
H 	 30.0377 	 -7.20522 	 74.9701 	 
H 	 29.0418 	 -6.72395 	 76.2612 	 
H 	 29.8129 	 -5.45276 	 75.1349 	 
S 	 28.6342 	 -8.29087 	 82.7834 	 
C 	 27.6858 	 -7.27653 	 83.8281 	 
C 	 27.4501 	 -6.05389 	 83.2029 	 
C 	 27.8113 	 -6.02693 	 81.804 	 
C 	 28.3965 	 -7.19777 	 81.4018 	 
H 	 26.9966 	 -5.28684 	 83.8046 	 
C 	 27.5877 	 -4.83494 	 80.9158 	 
H 	 26.6424 	 -4.50014 	 81.3357 	 
H 	 27.4165 	 -5.31001 	 79.9117 	 
C 	 28.5132 	 -3.63882 	 80.7714 	 
H 	 28.011 	 -2.9549 	 80.0122 	 
H 	 29.5641 	 -3.9009 	 80.478 	 
C 	 28.5313 	 -2.71921 	 81.9584 	 
H 	 27.5097 	 -2.37826 	 82.3164 	 
H 	 29.0297 	 -1.80947 	 81.7112 	 
H 	 29.0687 	 -3.23257 	 82.7776 	 
H 	 30.6483 	 -10.1316 	 77.946 	 
H 	 27.5757 	 -7.47672 	 84.9081 	 
