34

S 	 -4.5297 	 12.1335 	 82.841 	 
C 	 -4.72791 	 11.1502 	 81.3849 	 
C 	 -5.0029 	 11.9653 	 80.2899 	 
C 	 -5.28273 	 13.3477 	 80.6347 	 
C 	 -5.14041 	 13.561 	 82.0045 	 
H 	 -5.6315 	 14.0515 	 79.9189 	 
C 	 -5.16064 	 11.3266 	 78.9495 	 
H 	 -5.6548 	 10.3672 	 79.1108 	 
H 	 -4.15808 	 11.0689 	 78.7158 	 
C 	 -6.00124 	 12.0883 	 77.9301 	 
H 	 -6.44632 	 11.4403 	 77.1259 	 
H 	 -6.84321 	 12.502 	 78.4355 	 
C 	 -5.18417 	 13.1475 	 77.2822 	 
H 	 -5.78493 	 13.6182 	 76.6017 	 
H 	 -5.06943 	 13.8753 	 78.0799 	 
H 	 -4.17116 	 12.8134 	 76.9508 	 
S 	 -6.98204 	 15.4822 	 82.7553 	 
C 	 -6.45513 	 16.8657 	 83.5836 	 
C 	 -5.10996 	 16.9522 	 83.6151 	 
C 	 -4.47505 	 15.7388 	 83.1395 	 
C 	 -5.39884 	 14.8456 	 82.5972 	 
H 	 -4.66928 	 17.7536 	 84.1339 	 
C 	 -2.95124 	 15.5851 	 83.2982 	 
H 	 -2.96305 	 14.7571 	 84.0591 	 
H 	 -2.34915 	 16.4206 	 83.8108 	 
C 	 -1.99954 	 15.1772 	 82.1459 	 
H 	 -2.22666 	 15.8256 	 81.2669 	 
H 	 -2.06904 	 14.1821 	 81.8739 	 
C 	 -0.550479 	 15.4607 	 82.5094 	 
H 	 -0.302676 	 14.887 	 83.4166 	 
H 	 -0.335671 	 16.4936 	 82.6862 	 
H 	 0.0667436 	 15.2081 	 81.6068 	 
H 	 -4.5266 	 10.0338 	 81.4168 	 
H 	 -7.07247 	 17.5769 	 84.0859 	 
