34

S 	 -96.3957 	 52.6143 	 123.27 	 
C 	 -98.0358 	 53.1677 	 123.236 	 
C 	 -98.8933 	 52.2652 	 123.85 	 
C 	 -98.2154 	 51.1841 	 124.479 	 
C 	 -96.8099 	 51.2789 	 124.357 	 
H 	 -98.7195 	 50.2551 	 124.873 	 
C 	 -100.423 	 52.4648 	 123.837 	 
H 	 -100.56 	 53.5095 	 124.013 	 
H 	 -100.775 	 51.8682 	 124.695 	 
C 	 -100.981 	 51.8784 	 122.55 	 
H 	 -100.556 	 52.4268 	 121.682 	 
H 	 -100.494 	 50.9232 	 122.638 	 
C 	 -102.431 	 51.5502 	 122.353 	 
H 	 -102.89 	 50.9437 	 123.13 	 
H 	 -103.062 	 52.4925 	 122.246 	 
H 	 -102.614 	 51.0522 	 121.424 	 
S 	 -94.668 	 49.529 	 123.841 	 
C 	 -93.9735 	 48.6956 	 125.194 	 
C 	 -94.5618 	 49.0144 	 126.382 	 
C 	 -95.6765 	 49.9411 	 126.247 	 
C 	 -95.8175 	 50.362 	 124.954 	 
H 	 -94.2243 	 48.4523 	 127.174 	 
C 	 -96.6553 	 50.382 	 127.331 	 
H 	 -97.152 	 51.311 	 127.097 	 
H 	 -96.1207 	 50.77 	 128.213 	 
C 	 -97.6624 	 49.2491 	 127.756 	 
H 	 -97.0638 	 48.3031 	 127.973 	 
H 	 -98.2833 	 48.8757 	 126.927 	 
C 	 -98.3761 	 49.7558 	 128.995 	 
H 	 -98.7826 	 50.7773 	 128.788 	 
H 	 -97.6782 	 49.8346 	 129.824 	 
H 	 -99.1174 	 49.0753 	 129.371 	 
H 	 -98.1945 	 54.0569 	 122.694 	 
H 	 -93.2019 	 47.951 	 125.094 	 
