34

S 	 41.3035 	 8.67687 	 83.3405 	 
C 	 42.819 	 8.7864 	 82.4589 	 
C 	 43.6311 	 9.71346 	 82.9738 	 
C 	 43.1497 	 10.3505 	 84.2028 	 
C 	 41.8899 	 9.83561 	 84.4715 	 
H 	 43.5304 	 11.218 	 84.6978 	 
C 	 44.9975 	 9.9913 	 82.5177 	 
H 	 44.9179 	 9.90971 	 81.4296 	 
H 	 45.5384 	 9.21895 	 82.9591 	 
C 	 45.6462 	 11.3103 	 82.9942 	 
H 	 45.7633 	 11.2819 	 84.0713 	 
H 	 46.6944 	 11.3206 	 82.5879 	 
C 	 44.9121 	 12.5605 	 82.5508 	 
H 	 43.9404 	 12.625 	 82.9931 	 
H 	 45.476 	 13.4854 	 82.6447 	 
H 	 44.7207 	 12.4219 	 81.5102 	 
S 	 39.7593 	 11.0269 	 85.8394 	 
C 	 39.5105 	 10.6245 	 87.5218 	 
C 	 40.4893 	 9.7929 	 87.9484 	 
C 	 41.4323 	 9.37801 	 87.0099 	 
C 	 41.137 	 9.92755 	 85.7531 	 
H 	 40.4386 	 9.43487 	 88.9806 	 
C 	 42.5781 	 8.44544 	 87.3878 	 
H 	 43.4969 	 8.66052 	 86.8499 	 
H 	 42.3137 	 7.4034 	 87.0744 	 
C 	 43.0654 	 8.4534 	 88.8913 	 
H 	 42.3596 	 8.12732 	 89.5723 	 
H 	 43.347 	 9.41882 	 89.206 	 
C 	 44.2757 	 7.47388 	 89.1801 	 
H 	 44.0006 	 6.42482 	 89.0507 	 
H 	 44.6304 	 7.63558 	 90.1893 	 
H 	 45.1173 	 7.69402 	 88.4928 	 
H 	 42.8899 	 8.27414 	 81.4858 	 
H 	 38.6812 	 11.0227 	 88.0682 	 
