34

S 	 -15.7746 	 41.9404 	 35.5231 	 
C 	 -14.1629 	 41.3837 	 35.944 	 
C 	 -13.5333 	 41.0298 	 34.7806 	 
C 	 -14.1355 	 41.6058 	 33.645 	 
C 	 -15.3446 	 42.2551 	 33.8692 	 
H 	 -13.6863 	 41.4712 	 32.6646 	 
C 	 -12.1728 	 40.3071 	 34.75 	 
H 	 -11.7966 	 40.3959 	 35.7699 	 
H 	 -11.4252 	 40.8669 	 34.2883 	 
C 	 -12.0906 	 38.8919 	 34.2336 	 
H 	 -12.565 	 38.9159 	 33.2139 	 
H 	 -11.054 	 38.5302 	 34.2216 	 
C 	 -12.8862 	 37.9421 	 35.103 	 
H 	 -12.8375 	 36.937 	 34.6552 	 
H 	 -12.4279 	 37.9451 	 36.149 	 
H 	 -13.8718 	 38.3053 	 35.2478 	 
S 	 -18.0341 	 42.4427 	 33.2719 	 
C 	 -18.4928 	 43.0652 	 31.6735 	 
C 	 -17.4308 	 43.3578 	 30.8901 	 
C 	 -16.1442 	 43.0093 	 31.4918 	 
C 	 -16.3279 	 42.616 	 32.8436 	 
H 	 -17.6049 	 43.911 	 29.9638 	 
C 	 -14.8013 	 43.3162 	 30.7713 	 
H 	 -14.8663 	 43.4827 	 29.6699 	 
H 	 -14.1984 	 42.4464 	 30.9665 	 
C 	 -14.249 	 44.5308 	 31.4411 	 
H 	 -13.9897 	 44.2745 	 32.4443 	 
H 	 -14.9576 	 45.3221 	 31.4245 	 
C 	 -12.9716 	 45.0827 	 30.8519 	 
H 	 -13.1607 	 45.4787 	 29.8898 	 
H 	 -12.1084 	 44.4496 	 30.8188 	 
H 	 -12.5965 	 45.9297 	 31.4292 	 
H 	 -13.6773 	 41.1438 	 36.8883 	 
H 	 -19.452 	 43.4193 	 31.36 	 
