34

S 	 -4.45358 	 11.0543 	 79.3227 	 
C 	 -4.67676 	 9.33742 	 79.7275 	 
C 	 -4.85053 	 9.085 	 81.0696 	 
C 	 -4.58314 	 10.2914 	 81.7955 	 
C 	 -4.34597 	 11.3898 	 81.0158 	 
H 	 -4.63458 	 10.421 	 82.821 	 
C 	 -5.25203 	 7.78312 	 81.7073 	 
H 	 -4.54963 	 7.53278 	 82.5181 	 
H 	 -4.98162 	 7.05272 	 80.9366 	 
C 	 -6.66009 	 7.67873 	 82.2432 	 
H 	 -6.75821 	 6.80253 	 82.9689 	 
H 	 -6.88645 	 8.55788 	 82.877 	 
C 	 -7.74595 	 7.65089 	 81.0828 	 
H 	 -7.94223 	 8.59015 	 80.5347 	 
H 	 -7.46671 	 6.84211 	 80.4217 	 
H 	 -8.68387 	 7.5314 	 81.5208 	 
S 	 -2.1412 	 12.6085 	 81.8973 	 
C 	 -2.23963 	 14.2227 	 82.5132 	 
C 	 -3.52533 	 14.7749 	 82.4041 	 
C 	 -4.44644 	 13.862 	 81.7841 	 
C 	 -3.80976 	 12.6952 	 81.409 	 
H 	 -3.75987 	 15.7331 	 82.8075 	 
C 	 -5.93068 	 14.0439 	 81.6587 	 
H 	 -6.33191 	 14.5611 	 82.4687 	 
H 	 -6.41668 	 13.08 	 81.6624 	 
C 	 -6.37606 	 14.6689 	 80.3234 	 
H 	 -5.898 	 14.1567 	 79.4912 	 
H 	 -6.04287 	 15.7058 	 80.1767 	 
C 	 -7.933 	 14.5891 	 80.1864 	 
H 	 -8.18469 	 13.5428 	 80.2088 	 
H 	 -8.35447 	 15.0081 	 79.28 	 
H 	 -8.37286 	 15.1113 	 81.1014 	 
H 	 -4.79346 	 8.58534 	 78.9659 	 
H 	 -1.2789 	 14.6748 	 82.8728 	 
