34

S 	 -89.2481 	 48.1407 	 127.678 	 
C 	 -89.7549 	 49.8113 	 128.014 	 
C 	 -88.6268 	 50.6169 	 128.051 	 
C 	 -87.4395 	 49.8727 	 127.983 	 
C 	 -87.5773 	 48.5034 	 127.896 	 
H 	 -86.4086 	 50.3663 	 128.114 	 
C 	 -88.5095 	 52.0859 	 128.272 	 
H 	 -87.4893 	 52.2651 	 128.545 	 
H 	 -89.0957 	 52.3658 	 129.153 	 
C 	 -88.8809 	 52.946 	 127.123 	 
H 	 -88.3499 	 52.7464 	 126.181 	 
H 	 -89.8751 	 52.8953 	 126.759 	 
C 	 -88.494 	 54.3951 	 127.414 	 
H 	 -87.4413 	 54.604 	 127.518 	 
H 	 -88.8099 	 55.0709 	 126.578 	 
H 	 -88.9773 	 54.6818 	 128.328 	 
S 	 -86.7502 	 46.5129 	 126.415 	 
C 	 -85.1896 	 45.9295 	 126.553 	 
C 	 -84.6265 	 46.2668 	 127.776 	 
C 	 -85.3907 	 47.2825 	 128.461 	 
C 	 -86.5487 	 47.543 	 127.803 	 
H 	 -83.6269 	 45.9448 	 128.049 	 
C 	 -84.8862 	 48.0381 	 129.694 	 
H 	 -85.549 	 48.8741 	 129.85 	 
H 	 -83.9094 	 48.5342 	 129.61 	 
C 	 -84.8932 	 47.245 	 131.004 	 
H 	 -84.4071 	 47.7974 	 131.816 	 
H 	 -84.305 	 46.4224 	 130.728 	 
C 	 -86.1814 	 46.7004 	 131.499 	 
H 	 -86.8849 	 47.4999 	 131.803 	 
H 	 -85.8726 	 46.0626 	 132.3 	 
H 	 -86.7206 	 46.014 	 130.83 	 
H 	 -90.8084 	 50.1736 	 128.195 	 
H 	 -84.7996 	 45.1675 	 125.864 	 
