34

S 	 46.6922 	 18.1292 	 103.071 	 
C 	 47.4943 	 18.4491 	 101.494 	 
C 	 47.3869 	 17.3982 	 100.688 	 
C 	 46.7639 	 16.3345 	 101.397 	 
C 	 46.4125 	 16.474 	 102.666 	 
H 	 46.5012 	 15.3757 	 100.892 	 
C 	 47.673 	 17.3315 	 99.1421 	 
H 	 47.5442 	 16.3457 	 98.8112 	 
H 	 48.6588 	 17.6034 	 98.8513 	 
C 	 46.6747 	 18.1946 	 98.3563 	 
H 	 45.6353 	 17.9635 	 98.6748 	 
H 	 46.906 	 19.2028 	 98.7048 	 
C 	 46.7919 	 18.0592 	 96.8627 	 
H 	 46.1078 	 18.876 	 96.4318 	 
H 	 47.791 	 18.1 	 96.4463 	 
H 	 46.3755 	 17.093 	 96.5093 	 
S 	 44.3468 	 15.8155 	 104.456 	 
C 	 44.4326 	 14.4326 	 105.483 	 
C 	 45.6735 	 13.7835 	 105.211 	 
C 	 46.4777 	 14.3869 	 104.212 	 
C 	 45.8912 	 15.5335 	 103.676 	 
H 	 45.8319 	 12.8655 	 105.716 	 
C 	 47.7541 	 13.7415 	 103.746 	 
H 	 48.1786 	 13.3222 	 104.599 	 
H 	 48.3485 	 14.5813 	 103.591 	 
C 	 47.7331 	 12.6797 	 102.571 	 
H 	 48.6466 	 12.5232 	 102.106 	 
H 	 47.042 	 13.0471 	 101.81 	 
C 	 47.0988 	 11.3543 	 103.187 	 
H 	 46.8735 	 10.677 	 102.422 	 
H 	 46.294 	 11.6066 	 103.821 	 
H 	 47.7877 	 10.9085 	 103.895 	 
H 	 47.6346 	 19.4591 	 101.085 	 
H 	 43.7083 	 14.0501 	 106.161 	 
