34

S 	 6.11958 	 77.998 	 47.0426 	 
C 	 5.64297 	 76.2818 	 46.9371 	 
C 	 6.73246 	 75.4687 	 47.2256 	 
C 	 7.90476 	 76.2255 	 47.5102 	 
C 	 7.6992 	 77.5464 	 47.6272 	 
H 	 8.81519 	 75.7365 	 47.7033 	 
C 	 6.72413 	 73.9934 	 47.3949 	 
H 	 7.56745 	 73.6475 	 46.8278 	 
H 	 5.90337 	 73.6524 	 46.828 	 
C 	 6.56311 	 73.4912 	 48.8435 	 
H 	 7.5295 	 73.4467 	 49.35 	 
H 	 5.92666 	 74.1885 	 49.3654 	 
C 	 5.94267 	 72.0629 	 48.9358 	 
H 	 4.84762 	 72.0264 	 48.8109 	 
H 	 6.32679 	 71.4343 	 48.134 	 
H 	 6.05511 	 71.5718 	 49.8523 	 
S 	 8.60765 	 80.0667 	 47.0814 	 
C 	 9.85123 	 80.7279 	 48.1547 	 
C 	 10.2712 	 79.8619 	 49.1725 	 
C 	 9.53381 	 78.6722 	 49.1342 	 
C 	 8.6539 	 78.5746 	 48.0044 	 
H 	 11.1152 	 79.9837 	 49.8926 	 
C 	 9.77667 	 77.4974 	 50.0716 	 
H 	 10.7117 	 77.523 	 50.5721 	 
H 	 9.8501 	 76.5972 	 49.4171 	 
C 	 8.67138 	 77.3031 	 51.0904 	 
H 	 9.11244 	 76.4781 	 51.5997 	 
H 	 7.79476 	 76.9772 	 50.5536 	 
C 	 8.39744 	 78.4369 	 52.0235 	 
H 	 9.21082 	 78.6651 	 52.6994 	 
H 	 7.53921 	 78.1421 	 52.7171 	 
H 	 8.18686 	 79.443 	 51.569 	 
H 	 4.63882 	 75.9815 	 46.7415 	 
H 	 10.4173 	 81.6918 	 48.0223 	 
