34

S 	 -68.8285 	 42.1232 	 120.883 	 
C 	 -70.3846 	 42.9717 	 120.753 	 
C 	 -71.5092 	 42.127 	 121.08 	 
C 	 -71.0096 	 40.7652 	 121.349 	 
C 	 -69.6381 	 40.5763 	 121.174 	 
H 	 -71.5089 	 39.8222 	 121.502 	 
C 	 -73.0106 	 42.3346 	 121.006 	 
H 	 -73.3417 	 43.355 	 120.737 	 
H 	 -73.4526 	 42.108 	 121.927 	 
C 	 -73.757 	 41.458 	 120.012 	 
H 	 -73.306 	 41.5253 	 119.019 	 
H 	 -73.7097 	 40.4068 	 120.336 	 
C 	 -75.2584 	 41.8653 	 119.859 	 
H 	 -75.6131 	 41.5377 	 118.928 	 
H 	 -76.0137 	 41.458 	 120.626 	 
H 	 -75.3168 	 42.913 	 119.921 	 
S 	 -67.7087 	 38.9886 	 119.978 	 
C 	 -67.4243 	 37.3979 	 120.598 	 
C 	 -68.0592 	 37.1549 	 121.798 	 
C 	 -68.995 	 38.2996 	 122.062 	 
C 	 -68.9275 	 39.337 	 121.17 	 
H 	 -67.8306 	 36.2744 	 122.321 	 
C 	 -69.8358 	 38.396 	 123.346 	 
H 	 -70.3147 	 39.3537 	 123.463 	 
H 	 -69.0968 	 38.1754 	 124.049 	 
C 	 -70.9566 	 37.3103 	 123.343 	 
H 	 -70.6447 	 36.3258 	 123.09 	 
H 	 -71.6737 	 37.6957 	 122.537 	 
C 	 -71.8448 	 37.2507 	 124.647 	 
H 	 -72.5442 	 36.3822 	 124.613 	 
H 	 -72.5168 	 38.1387 	 124.783 	 
H 	 -71.0994 	 37.2098 	 125.435 	 
H 	 -70.4314 	 43.9931 	 120.409 	 
H 	 -66.7101 	 36.6731 	 120.189 	 
