34

S 	 -57.0531 	 34.4544 	 97.9111 	 
C 	 -58.5149 	 34.0147 	 97.0517 	 
C 	 -58.329 	 32.8934 	 96.2658 	 
C 	 -56.9286 	 32.4883 	 96.2572 	 
C 	 -56.131 	 33.134 	 97.1468 	 
H 	 -56.5936 	 31.6372 	 95.6058 	 
C 	 -59.2645 	 32.3156 	 95.2707 	 
H 	 -60.2778 	 32.6888 	 95.3694 	 
H 	 -59.3866 	 31.2991 	 95.6404 	 
C 	 -58.9204 	 32.493 	 93.8138 	 
H 	 -58.97 	 33.5927 	 93.619 	 
H 	 -57.8966 	 32.141 	 93.5148 	 
C 	 -59.8321 	 31.9171 	 92.7652 	 
H 	 -60.8432 	 32.3466 	 92.8111 	 
H 	 -59.3281 	 32.1792 	 91.788 	 
H 	 -59.9111 	 30.8924 	 92.8128 	 
S 	 -54.2851 	 31.2513 	 97.8011 	 
C 	 -52.5948 	 31.6612 	 98.0923 	 
C 	 -52.4136 	 32.9861 	 97.8257 	 
C 	 -53.5795 	 33.6713 	 97.3374 	 
C 	 -54.7328 	 32.8262 	 97.3235 	 
H 	 -51.4166 	 33.4336 	 97.94 	 
C 	 -53.48 	 35.0515 	 96.7889 	 
H 	 -52.6798 	 35.5667 	 97.2596 	 
H 	 -54.2701 	 35.6251 	 97.2081 	 
C 	 -53.454 	 35.0699 	 95.2366 	 
H 	 -54.3669 	 34.5276 	 94.9554 	 
H 	 -52.5783 	 34.55 	 94.8885 	 
C 	 -53.471 	 36.5319 	 94.7709 	 
H 	 -53.1928 	 36.539 	 93.7051 	 
H 	 -52.7591 	 37.1312 	 95.3497 	 
H 	 -54.5156 	 36.8942 	 94.9386 	 
H 	 -59.5141 	 34.5203 	 97.0451 	 
H 	 -51.8588 	 31.0113 	 98.6113 	 
