34

S 	 -64.6306 	 47.8889 	 125.671 	 
C 	 -64.8045 	 46.7106 	 126.978 	 
C 	 -64.8693 	 47.3506 	 128.2 	 
C 	 -64.6517 	 48.7427 	 128.123 	 
C 	 -64.5932 	 49.1932 	 126.814 	 
H 	 -64.8007 	 49.3736 	 128.946 	 
C 	 -65.103 	 46.6874 	 129.562 	 
H 	 -64.2558 	 46.9758 	 130.177 	 
H 	 -65.0375 	 45.6145 	 129.405 	 
C 	 -66.4269 	 47.0014 	 130.141 	 
H 	 -66.7409 	 48.0467 	 130.366 	 
H 	 -67.0676 	 46.6528 	 129.356 	 
C 	 -66.7828 	 46.3211 	 131.47 	 
H 	 -66.3043 	 46.8699 	 132.31 	 
H 	 -67.8425 	 46.3385 	 131.731 	 
H 	 -66.4572 	 45.2692 	 131.593 	 
S 	 -65.2524 	 50.8537 	 124.706 	 
C 	 -65.0741 	 52.5838 	 124.777 	 
C 	 -64.3943 	 52.9756 	 125.912 	 
C 	 -64.1797 	 51.8585 	 126.781 	 
C 	 -64.6237 	 50.5911 	 126.306 	 
H 	 -64.1251 	 53.9941 	 125.98 	 
C 	 -63.3857 	 52.0335 	 128.053 	 
H 	 -63.5465 	 51.2481 	 128.736 	 
H 	 -63.7189 	 52.9447 	 128.525 	 
C 	 -61.8164 	 52.087 	 127.819 	 
H 	 -61.5827 	 52.8334 	 127.143 	 
H 	 -61.4827 	 51.1505 	 127.348 	 
C 	 -60.9863 	 52.2775 	 129.182 	 
H 	 -60.983 	 53.3335 	 129.297 	 
H 	 -59.9475 	 51.9211 	 129.119 	 
H 	 -61.549 	 52.1311 	 130.088 	 
H 	 -65.0923 	 45.6856 	 126.917 	 
H 	 -65.2653 	 53.1887 	 123.95 	 
