34

S 	 -48.3683 	 18.4904 	 80.9407 	 
C 	 -47.3941 	 18.0348 	 82.301 	 
C 	 -46.7258 	 16.8339 	 82.1766 	 
C 	 -47.0903 	 16.1839 	 80.9614 	 
C 	 -47.8478 	 17.0117 	 80.1502 	 
H 	 -46.8497 	 15.1832 	 80.676 	 
C 	 -45.7733 	 16.2622 	 83.2529 	 
H 	 -46.3887 	 15.6417 	 83.9494 	 
H 	 -45.3692 	 17.0018 	 83.9372 	 
C 	 -44.5173 	 15.5538 	 82.6708 	 
H 	 -44.7456 	 14.6894 	 82.0224 	 
H 	 -44.0125 	 16.2545 	 82.0502 	 
C 	 -43.7008 	 14.8988 	 83.8737 	 
H 	 -43.5062 	 15.5709 	 84.6421 	 
H 	 -44.2008 	 14.0887 	 84.3722 	 
H 	 -42.683 	 14.7401 	 83.4461 	 
S 	 -50.1276 	 17.2287 	 78.6859 	 
C 	 -50.0876 	 16.6539 	 77.008 	 
C 	 -48.9221 	 16.0602 	 76.6624 	 
C 	 -47.9061 	 16.1132 	 77.6653 	 
C 	 -48.427 	 16.7805 	 78.7947 	 
H 	 -48.7794 	 15.7454 	 75.6541 	 
C 	 -46.5148 	 15.6275 	 77.3832 	 
H 	 -46.5459 	 14.8738 	 76.658 	 
H 	 -46.0928 	 15.0805 	 78.2494 	 
C 	 -45.5502 	 16.7032 	 76.8352 	 
H 	 -45.6798 	 17.5605 	 77.558 	 
H 	 -45.9815 	 16.876 	 75.8629 	 
C 	 -44.0765 	 16.3126 	 76.7179 	 
H 	 -43.4575 	 17.0794 	 76.1106 	 
H 	 -43.9223 	 15.4151 	 76.1392 	 
H 	 -43.5305 	 16.001 	 77.6039 	 
H 	 -47.4549 	 18.4717 	 83.3054 	 
H 	 -50.8876 	 16.8517 	 76.2924 	 
