34

S 	 -2.3694 	 -21.392 	 66.4319 	 
C 	 -1.29478 	 -22.2044 	 65.279 	 
C 	 -0.648262 	 -21.2729 	 64.4356 	 
C 	 -1.1141 	 -19.959 	 64.7208 	 
C 	 -1.9275 	 -19.801 	 65.7583 	 
H 	 -0.724307 	 -19.0987 	 64.199 	 
C 	 0.203593 	 -21.6518 	 63.2826 	 
H 	 0.848969 	 -22.4437 	 63.6834 	 
H 	 0.924139 	 -20.872 	 63.1117 	 
C 	 -0.475571 	 -22.205 	 62.0212 	 
H 	 0.341809 	 -22.31 	 61.3153 	 
H 	 -0.821428 	 -23.2442 	 62.0644 	 
C 	 -1.73726 	 -21.3651 	 61.6143 	 
H 	 -2.53484 	 -21.3919 	 62.3486 	 
H 	 -1.51081 	 -20.3316 	 61.558 	 
H 	 -2.07433 	 -21.4975 	 60.6178 	 
S 	 -4.24011 	 -18.418 	 66.3282 	 
C 	 -4.17077 	 -16.6857 	 66.773 	 
C 	 -2.86303 	 -16.2627 	 66.8223 	 
C 	 -1.89583 	 -17.2909 	 66.4701 	 
C 	 -2.47662 	 -18.5421 	 66.2727 	 
H 	 -2.61317 	 -15.1867 	 66.9138 	 
C 	 -0.428363 	 -16.9819 	 66.4137 	 
H 	 -0.268957 	 -15.898 	 66.1363 	 
H 	 0.0654083 	 -17.6009 	 65.6494 	 
C 	 0.376159 	 -17.3407 	 67.6723 	 
H 	 -0.0638789 	 -18.2817 	 68.1039 	 
H 	 0.0675933 	 -16.5961 	 68.3889 	 
C 	 1.88938 	 -17.265 	 67.5696 	 
H 	 2.22034 	 -18.2878 	 67.2477 	 
H 	 2.39548 	 -17.0646 	 68.5076 	 
H 	 2.20445 	 -16.457 	 66.8664 	 
H 	 -1.21583 	 -23.2824 	 65.0763 	 
H 	 -5.04583 	 -16.0101 	 66.8861 	 
