34

S 	 5.41851 	 22.6024 	 41.6648 	 
C 	 4.17948 	 22.2761 	 42.9137 	 
C 	 3.53305 	 23.4593 	 43.2075 	 
C 	 3.98938 	 24.568 	 42.4473 	 
C 	 5.05698 	 24.2568 	 41.6163 	 
H 	 3.69623 	 25.5608 	 42.5253 	 
C 	 2.17446 	 23.6162 	 43.8212 	 
H 	 2.03019 	 24.7087 	 44.0858 	 
H 	 2.17423 	 23.3049 	 44.7853 	 
C 	 1.01507 	 23.2306 	 42.9384 	 
H 	 1.17869 	 23.7478 	 41.9332 	 
H 	 1.02121 	 22.235 	 42.5651 	 
C 	 -0.358057 	 23.5705 	 43.4843 	 
H 	 -0.386838 	 24.6247 	 43.6851 	 
H 	 -1.06229 	 23.4308 	 42.717 	 
H 	 -0.684926 	 22.913 	 44.2907 	 
S 	 7.53527 	 25.3164 	 40.968 	 
C 	 7.62615 	 26.7535 	 39.8963 	 
C 	 6.38733 	 27.0257 	 39.4093 	 
C 	 5.35139 	 26.2404 	 39.9634 	 
C 	 5.80828 	 25.1484 	 40.7183 	 
H 	 6.35997 	 27.9228 	 38.8025 	 
C 	 3.856 	 26.534 	 39.7604 	 
H 	 3.48432 	 26.9672 	 40.7031 	 
H 	 3.30276 	 25.5408 	 39.6508 	 
C 	 3.47718 	 27.2118 	 38.413 	 
H 	 3.74313 	 26.6059 	 37.5149 	 
H 	 4.01967 	 28.2234 	 38.5289 	 
C 	 2.01936 	 27.4905 	 38.1731 	 
H 	 1.43427 	 27.2907 	 39.1178 	 
H 	 1.54055 	 26.9268 	 37.3607 	 
H 	 1.86946 	 28.5707 	 38.0415 	 
H 	 3.75298 	 21.3301 	 43.1721 	 
H 	 8.44966 	 27.3568 	 39.6093 	 
