34

S 	 -31.3814 	 67.1497 	 100.021 	 
C 	 -32.4525 	 68.4008 	 100.731 	 
C 	 -32.1989 	 69.6035 	 100.159 	 
C 	 -31.0283 	 69.5432 	 99.3091 	 
C 	 -30.4862 	 68.3147 	 99.0537 	 
H 	 -30.5404 	 70.3405 	 98.9343 	 
C 	 -32.9579 	 70.8046 	 100.502 	 
H 	 -34.0062 	 70.6078 	 100.773 	 
H 	 -33.2052 	 71.2666 	 99.5342 	 
C 	 -32.3751 	 71.8469 	 101.49 	 
H 	 -31.5581 	 72.3543 	 101.036 	 
H 	 -33.0344 	 72.7272 	 101.608 	 
C 	 -31.873 	 71.2967 	 102.841 	 
H 	 -32.7086 	 71.1507 	 103.56 	 
H 	 -31.2246 	 70.427 	 102.646 	 
H 	 -31.2794 	 71.9535 	 103.421 	 
S 	 -29.5751 	 66.6524 	 97.088 	 
C 	 -28.0301 	 66.9646 	 96.3934 	 
C 	 -27.338 	 68.0143 	 97.0202 	 
C 	 -28.1147 	 68.5381 	 98.0976 	 
C 	 -29.2997 	 67.947 	 98.2304 	 
H 	 -26.3599 	 68.3666 	 96.6311 	 
C 	 -27.4957 	 69.5822 	 98.9653 	 
H 	 -28.3395 	 70.056 	 99.4856 	 
H 	 -27.1605 	 70.352 	 98.2841 	 
C 	 -26.5109 	 69.0983 	 99.9829 	 
H 	 -26.1483 	 69.964 	 100.541 	 
H 	 -25.69 	 68.5762 	 99.3805 	 
C 	 -27.0548 	 68.062 	 100.933 	 
H 	 -27.9962 	 68.4432 	 101.28 	 
H 	 -26.3735 	 67.8963 	 101.774 	 
H 	 -27.2451 	 67.0713 	 100.476 	 
H 	 -33.2437 	 68.1461 	 101.442 	 
H 	 -27.5275 	 66.4363 	 95.5474 	 
