34

S 	 -27.2505 	 55.4146 	 111.542 	 
C 	 -27.9394 	 55.0339 	 113.103 	 
C 	 -28.4877 	 56.1307 	 113.719 	 
C 	 -28.3584 	 57.2745 	 112.852 	 
C 	 -27.7698 	 57.0547 	 111.649 	 
H 	 -28.6714 	 58.2278 	 113.108 	 
C 	 -29.0439 	 56.2647 	 115.162 	 
H 	 -29.6456 	 57.205 	 115.142 	 
H 	 -28.2208 	 56.4068 	 115.896 	 
C 	 -29.9025 	 55.117 	 115.654 	 
H 	 -29.3567 	 54.0854 	 115.605 	 
H 	 -30.0973 	 55.257 	 116.775 	 
C 	 -31.2685 	 55.1264 	 114.853 	 
H 	 -31.338 	 56.1192 	 114.476 	 
H 	 -31.3716 	 54.349 	 114.08 	 
H 	 -32.1736 	 54.8475 	 115.375 	 
S 	 -25.8884 	 58.5009 	 110.43 	 
C 	 -26.3519 	 59.3776 	 108.995 	 
C 	 -27.6936 	 59.4108 	 108.694 	 
C 	 -28.4319 	 58.5782 	 109.645 	 
C 	 -27.5563 	 57.9816 	 110.57 	 
H 	 -27.9747 	 59.9036 	 107.792 	 
C 	 -29.8685 	 58.1763 	 109.514 	 
H 	 -30.175 	 57.5424 	 110.4 	 
H 	 -29.7349 	 57.5278 	 108.659 	 
C 	 -30.921 	 59.2914 	 109.153 	 
H 	 -31.9292 	 58.8439 	 108.96 	 
H 	 -30.625 	 59.8059 	 108.26 	 
C 	 -30.9641 	 60.3135 	 110.301 	 
H 	 -31.7968 	 61.0424 	 110.16 	 
H 	 -30.0195 	 60.855 	 110.322 	 
H 	 -30.9936 	 59.7867 	 111.252 	 
H 	 -28.1169 	 54.0535 	 113.498 	 
H 	 -25.5787 	 59.9888 	 108.403 	 
