34

S 	 -97.1799 	 38.359 	 124.931 	 
C 	 -96.1768 	 37.714 	 126.262 	 
C 	 -94.8768 	 37.5485 	 125.782 	 
C 	 -94.7411 	 37.8707 	 124.346 	 
C 	 -95.9195 	 38.3784 	 123.783 	 
H 	 -93.8791 	 37.7779 	 123.71 	 
C 	 -93.8094 	 36.9328 	 126.641 	 
H 	 -93.1205 	 36.3461 	 125.922 	 
H 	 -94.2924 	 36.2279 	 127.356 	 
C 	 -93.0304 	 38.0544 	 127.393 	 
H 	 -92.1741 	 37.518 	 127.941 	 
H 	 -92.4259 	 38.638 	 126.679 	 
C 	 -93.8192 	 39.038 	 128.237 	 
H 	 -94.1044 	 39.819 	 127.586 	 
H 	 -94.6234 	 38.5945 	 128.765 	 
H 	 -93.1886 	 39.5026 	 128.999 	 
S 	 -95.8001 	 37.7462 	 120.996 	 
C 	 -96.3964 	 38.9765 	 119.929 	 
C 	 -96.4447 	 40.2081 	 120.525 	 
C 	 -96.3251 	 40.1429 	 121.983 	 
C 	 -96.044 	 38.8502 	 122.403 	 
H 	 -96.7231 	 41.1332 	 119.992 	 
C 	 -96.37 	 41.3803 	 122.826 	 
H 	 -95.3928 	 41.4963 	 123.111 	 
H 	 -96.8518 	 41.1321 	 123.784 	 
C 	 -97.0126 	 42.6611 	 122.269 	 
H 	 -96.4307 	 43.0612 	 121.476 	 
H 	 -96.8377 	 43.3251 	 123.103 	 
C 	 -98.5347 	 42.6598 	 122.143 	 
H 	 -98.8573 	 43.7112 	 121.931 	 
H 	 -98.9412 	 42.4528 	 123.111 	 
H 	 -98.9165 	 42.0571 	 121.358 	 
H 	 -96.5813 	 37.5345 	 127.245 	 
H 	 -96.5291 	 38.89 	 118.915 	 
