34

S 	 35.8606 	 11.0448 	 85.6004 	 
C 	 35.4419 	 10.6292 	 84.0016 	 
C 	 35.71 	 9.29698 	 83.7387 	 
C 	 36.3557 	 8.64727 	 84.8265 	 
C 	 36.7034 	 9.61016 	 85.8236 	 
H 	 36.6947 	 7.6004 	 84.9508 	 
C 	 35.3481 	 8.57407 	 82.4683 	 
H 	 35.776 	 7.58089 	 82.4237 	 
H 	 35.8394 	 9.00558 	 81.6033 	 
C 	 33.8653 	 8.51456 	 82.0926 	 
H 	 33.3058 	 8.28968 	 83.0379 	 
H 	 33.515 	 9.55459 	 81.8298 	 
C 	 33.498 	 7.40638 	 81.1327 	 
H 	 32.396 	 7.38707 	 80.9679 	 
H 	 33.8314 	 7.60553 	 80.0956 	 
H 	 33.71 	 6.35869 	 81.4262 	 
S 	 36.8252 	 9.87216 	 88.5928 	 
C 	 38.348 	 9.43648 	 89.3494 	 
C 	 39.3626 	 9.12479 	 88.4679 	 
C 	 38.9058 	 9.11352 	 87.1286 	 
C 	 37.5836 	 9.47418 	 86.99 	 
H 	 40.3395 	 8.84717 	 88.8203 	 
C 	 39.8238 	 8.78574 	 85.9106 	 
H 	 39.1767 	 8.59839 	 85.0678 	 
H 	 40.4626 	 7.9577 	 86.1452 	 
C 	 40.7187 	 10.0434 	 85.5879 	 
H 	 41.4582 	 10.2138 	 86.3984 	 
H 	 39.9969 	 10.8134 	 85.7152 	 
C 	 41.3879 	 9.95797 	 84.2662 	 
H 	 40.7342 	 10.0306 	 83.4916 	 
H 	 42.0746 	 9.13795 	 84.0485 	 
H 	 41.8701 	 10.8593 	 84.1204 	 
H 	 34.8396 	 11.3283 	 83.3774 	 
H 	 38.5319 	 9.53192 	 90.45 	 
