34

S 	 -53.3489 	 42.8679 	 107.124 	 
C 	 -52.2544 	 44.2634 	 107.383 	 
C 	 -52.9448 	 45.4133 	 107.724 	 
C 	 -54.3363 	 45.193 	 107.774 	 
C 	 -54.7146 	 43.9287 	 107.378 	 
H 	 -55.11 	 45.8969 	 107.945 	 
C 	 -52.3482 	 46.7407 	 108.041 	 
H 	 -51.7122 	 46.6612 	 108.931 	 
H 	 -53.1093 	 47.4453 	 108.357 	 
C 	 -51.4505 	 47.4381 	 106.992 	 
H 	 -50.5355 	 46.8017 	 106.929 	 
H 	 -51.9375 	 47.5646 	 105.986 	 
C 	 -51.0829 	 48.8344 	 107.438 	 
H 	 -51.9456 	 49.4835 	 107.712 	 
H 	 -50.2695 	 48.8385 	 108.256 	 
H 	 -50.6291 	 49.3695 	 106.679 	 
S 	 -56.5309 	 42.3246 	 105.879 	 
C 	 -58.1817 	 42.2778 	 106.138 	 
C 	 -58.3799 	 43.1319 	 107.251 	 
C 	 -57.2297 	 43.6974 	 107.831 	 
C 	 -56.0934 	 43.4812 	 107.192 	 
H 	 -59.331 	 43.391 	 107.614 	 
C 	 -57.3608 	 44.6891 	 108.963 	 
H 	 -56.4596 	 44.9754 	 109.502 	 
H 	 -57.8244 	 44.1081 	 109.783 	 
C 	 -58.351 	 45.8799 	 108.7 	 
H 	 -58.3953 	 46.4448 	 109.594 	 
H 	 -59.3173 	 45.4496 	 108.435 	 
C 	 -57.7857 	 46.9004 	 107.677 	 
H 	 -57.6175 	 46.5404 	 106.686 	 
H 	 -56.9279 	 47.231 	 108.177 	 
H 	 -58.4028 	 47.8212 	 107.403 	 
H 	 -51.237 	 44.405 	 107.246 	 
H 	 -59.054 	 41.9457 	 105.478 	 
