34

S 	 -56.4012 	 36.2945 	 114.522 	 
C 	 -56.0887 	 36.2594 	 112.811 	 
C 	 -55.9837 	 37.5613 	 112.312 	 
C 	 -56.3664 	 38.5388 	 113.265 	 
C 	 -56.5619 	 38.0172 	 114.527 	 
H 	 -56.3046 	 39.6044 	 113.165 	 
C 	 -55.5207 	 37.8897 	 110.9 	 
H 	 -56.0799 	 38.7027 	 110.479 	 
H 	 -55.8224 	 37.0505 	 110.272 	 
C 	 -53.9453 	 38.0435 	 110.8 	 
H 	 -53.7972 	 38.6055 	 109.832 	 
H 	 -53.6359 	 38.6967 	 111.631 	 
C 	 -53.1286 	 36.7306 	 110.937 	 
H 	 -53.6337 	 35.9403 	 110.368 	 
H 	 -52.1079 	 36.8166 	 110.657 	 
H 	 -53.2425 	 36.2724 	 111.959 	 
S 	 -58.0103 	 38.2118 	 116.822 	 
C 	 -57.5859 	 39.4066 	 118.007 	 
C 	 -56.4626 	 40.1469 	 117.679 	 
C 	 -56.0547 	 39.8357 	 116.309 	 
C 	 -56.7846 	 38.7709 	 115.743 	 
H 	 -56.1025 	 40.8135 	 118.424 	 
C 	 -54.8502 	 40.4823 	 115.667 	 
H 	 -54.8984 	 41.5919 	 115.876 	 
H 	 -54.935 	 40.6435 	 114.537 	 
C 	 -53.4561 	 40.0162 	 116.027 	 
H 	 -53.4872 	 39.8488 	 117.148 	 
H 	 -52.699 	 40.6871 	 115.895 	 
C 	 -52.9827 	 38.7113 	 115.428 	 
H 	 -53.7328 	 37.9759 	 115.596 	 
H 	 -52.0854 	 38.2512 	 115.845 	 
H 	 -52.8223 	 38.8812 	 114.333 	 
H 	 -55.8887 	 35.4377 	 112.17 	 
H 	 -58.0309 	 39.5025 	 118.979 	 
