34

S 	 -96.0978 	 45.5385 	 123.634 	 
C 	 -95.1528 	 45.8119 	 125.065 	 
C 	 -95.644 	 46.9173 	 125.728 	 
C 	 -96.5985 	 47.6267 	 125.004 	 
C 	 -96.9368 	 47.0497 	 123.783 	 
H 	 -97.1247 	 48.5347 	 125.191 	 
C 	 -95.2784 	 47.2265 	 127.173 	 
H 	 -95.3775 	 48.3079 	 127.292 	 
H 	 -94.2309 	 46.966 	 127.123 	 
C 	 -96.0306 	 46.4513 	 128.266 	 
H 	 -95.8357 	 45.4278 	 128.066 	 
H 	 -95.5873 	 46.7569 	 129.202 	 
C 	 -97.5841 	 46.8124 	 128.375 	 
H 	 -97.9591 	 46.4773 	 127.387 	 
H 	 -97.9246 	 46.2414 	 129.297 	 
H 	 -97.8229 	 47.8365 	 128.526 	 
S 	 -97.9183 	 49.0491 	 122.3 	 
C 	 -99.4484 	 48.872 	 121.364 	 
C 	 -99.9687 	 47.578 	 121.593 	 
C 	 -99.1945 	 46.8126 	 122.511 	 
C 	 -98.0542 	 47.4769 	 122.933 	 
H 	 -100.832 	 47.2638 	 120.984 	 
C 	 -99.7168 	 45.4404 	 123.064 	 
H 	 -98.9109 	 44.6961 	 122.865 	 
H 	 -100.49 	 45.0887 	 122.391 	 
C 	 -100.211 	 45.565 	 124.548 	 
H 	 -100.921 	 46.4434 	 124.567 	 
H 	 -99.3698 	 46.0103 	 125.155 	 
C 	 -100.851 	 44.2164 	 125.108 	 
H 	 -100.141 	 43.4364 	 125.323 	 
H 	 -101.497 	 43.7691 	 124.388 	 
H 	 -101.422 	 44.4134 	 126.009 	 
H 	 -94.3821 	 45.2082 	 125.549 	 
H 	 -99.8148 	 49.6276 	 120.704 	 
