34

S 	 -31.569 	 59.8499 	 111.281 	 
C 	 -31.4634 	 59.6011 	 113.076 	 
C 	 -32.7175 	 59.7025 	 113.685 	 
C 	 -33.6992 	 59.9503 	 112.677 	 
C 	 -33.263 	 60.0652 	 111.392 	 
H 	 -34.8309 	 59.9666 	 112.806 	 
C 	 -33.0043 	 59.6729 	 115.17 	 
H 	 -34.052 	 59.7726 	 115.436 	 
H 	 -32.5388 	 60.5302 	 115.675 	 
C 	 -32.6058 	 58.3431 	 115.882 	 
H 	 -31.5163 	 58.3896 	 115.984 	 
H 	 -32.9921 	 58.3772 	 116.865 	 
C 	 -33.2095 	 57.1352 	 115.1 	 
H 	 -33.2413 	 56.2279 	 115.689 	 
H 	 -34.2491 	 57.3022 	 114.748 	 
H 	 -32.6445 	 56.8295 	 114.216 	 
S 	 -34.1743 	 58.8201 	 109.152 	 
C 	 -35.2319 	 59.6215 	 108.023 	 
C 	 -35.4194 	 60.9804 	 108.369 	 
C 	 -34.897 	 61.3084 	 109.648 	 
C 	 -34.1443 	 60.2337 	 110.237 	 
H 	 -35.9291 	 61.5653 	 107.639 	 
C 	 -34.9568 	 62.7187 	 110.282 	 
H 	 -34.3855 	 63.4869 	 109.693 	 
H 	 -34.3999 	 62.6157 	 111.234 	 
C 	 -36.3283 	 63.2832 	 110.616 	 
H 	 -36.7921 	 63.6671 	 109.748 	 
H 	 -36.1589 	 64.1872 	 111.133 	 
C 	 -37.2749 	 62.3517 	 111.455 	 
H 	 -37.3742 	 61.3672 	 111.044 	 
H 	 -38.3199 	 62.6356 	 111.578 	 
H 	 -36.8429 	 62.2016 	 112.441 	 
H 	 -30.5502 	 59.3304 	 113.67 	 
H 	 -35.6159 	 59.1592 	 107.112 	 
