34

S 	 -45.558 	 53.2102 	 106.365 	 
C 	 -44.0412 	 53.2635 	 105.584 	 
C 	 -43.3298 	 54.4787 	 105.691 	 
C 	 -43.9688 	 55.2713 	 106.637 	 
C 	 -45.2598 	 54.7891 	 107.011 	 
H 	 -43.7151 	 56.2596 	 107.074 	 
C 	 -41.9361 	 54.7025 	 105.135 	 
H 	 -41.6416 	 53.9488 	 104.372 	 
H 	 -41.1887 	 54.5955 	 105.949 	 
C 	 -41.7805 	 56.0682 	 104.426 	 
H 	 -41.982 	 56.8915 	 105.206 	 
H 	 -40.8564 	 56.1916 	 103.931 	 
C 	 -42.8476 	 56.3191 	 103.372 	 
H 	 -43.9188 	 56.3826 	 103.712 	 
H 	 -42.6614 	 57.2104 	 102.854 	 
H 	 -42.8639 	 55.5266 	 102.582 	 
S 	 -46.8621 	 54.425 	 109.256 	 
C 	 -47.845 	 55.6942 	 109.795 	 
C 	 -47.6115 	 56.8789 	 109.109 	 
C 	 -46.6682 	 56.702 	 108.048 	 
C 	 -46.151 	 55.4305 	 107.987 	 
H 	 -48.08 	 57.8139 	 109.391 	 
C 	 -46.5035 	 57.9075 	 107.091 	 
H 	 -45.4402 	 58.1398 	 107.177 	 
H 	 -46.9971 	 58.7445 	 107.569 	 
C 	 -47.0835 	 57.7922 	 105.664 	 
H 	 -46.5317 	 56.9722 	 105.157 	 
H 	 -47.0568 	 58.712 	 105.144 	 
C 	 -48.5754 	 57.4928 	 105.696 	 
H 	 -49.1271 	 57.9481 	 104.876 	 
H 	 -49.0613 	 57.8994 	 106.676 	 
H 	 -48.7861 	 56.4265 	 105.687 	 
H 	 -43.7717 	 52.388 	 105.076 	 
H 	 -48.3859 	 55.6505 	 110.686 	 
