34

S 	 -93.9149 	 57.1435 	 131.881 	 
C 	 -92.5968 	 58.346 	 131.962 	 
C 	 -93.0781 	 59.6404 	 132.153 	 
C 	 -94.4912 	 59.7292 	 132.031 	 
C 	 -95.0958 	 58.4915 	 132.105 	 
H 	 -95.0089 	 60.645 	 132.111 	 
C 	 -92.2164 	 60.8584 	 132.477 	 
H 	 -91.6909 	 61.0349 	 131.563 	 
H 	 -91.3983 	 60.6919 	 133.163 	 
C 	 -93.0122 	 62.1102 	 132.916 	 
H 	 -93.726 	 62.5275 	 132.161 	 
H 	 -93.759 	 61.8068 	 133.712 	 
C 	 -91.9743 	 63.1563 	 133.396 	 
H 	 -92.3621 	 64.2387 	 133.344 	 
H 	 -91.8778 	 62.8069 	 134.405 	 
H 	 -91.0031 	 63.1865 	 132.953 	 
S 	 -97.0928 	 57.2906 	 133.567 	 
C 	 -98.7636 	 57.4596 	 133.011 	 
C 	 -98.846 	 57.9678 	 131.748 	 
C 	 -97.566 	 58.3451 	 131.299 	 
C 	 -96.51 	 58.1879 	 132.191 	 
H 	 -99.8862 	 58.131 	 131.331 	 
C 	 -97.4764 	 58.9745 	 129.916 	 
H 	 -96.6744 	 59.7571 	 129.744 	 
H 	 -98.4276 	 59.3921 	 129.544 	 
C 	 -97.0709 	 57.8212 	 128.915 	 
H 	 -97.741 	 56.8847 	 129.058 	 
H 	 -96.0521 	 57.4399 	 129.287 	 
C 	 -97.0022 	 58.1567 	 127.46 	 
H 	 -96.0991 	 58.6331 	 127.279 	 
H 	 -97.6809 	 58.8831 	 126.979 	 
H 	 -96.892 	 57.2252 	 126.909 	 
H 	 -91.5457 	 58.1012 	 131.904 	 
H 	 -99.6544 	 56.9624 	 133.452 	 
