34

S 	 40.5332 	 31.8983 	 50.783 	 
C 	 40.9087 	 33.2512 	 51.8755 	 
C 	 39.8951 	 33.5037 	 52.7935 	 
C 	 38.7604 	 32.6701 	 52.5885 	 
C 	 38.9332 	 31.7292 	 51.5716 	 
H 	 37.7742 	 32.6586 	 53.0698 	 
C 	 40.0164 	 34.5446 	 53.8631 	 
H 	 40.8619 	 34.2239 	 54.4467 	 
H 	 39.1973 	 34.4453 	 54.5619 	 
C 	 40.0917 	 36.0393 	 53.374 	 
H 	 40.2162 	 36.626 	 54.2269 	 
H 	 40.9401 	 36.3476 	 52.8054 	 
C 	 38.8273 	 36.497 	 52.5523 	 
H 	 39.0314 	 36.037 	 51.5024 	 
H 	 37.9647 	 36.0544 	 52.9657 	 
H 	 38.8371 	 37.5933 	 52.4955 	 
S 	 38.3134 	 29.1323 	 51.06 	 
C 	 36.6379 	 28.6396 	 50.6988 	 
C 	 35.8768 	 29.8035 	 50.4706 	 
C 	 36.5588 	 30.9765 	 50.8199 	 
C 	 37.8879 	 30.8126 	 51.1753 	 
H 	 34.8707 	 29.7051 	 50.0861 	 
C 	 35.8906 	 32.3575 	 50.6609 	 
H 	 36.1741 	 32.7089 	 49.656 	 
H 	 36.391 	 33.0511 	 51.3667 	 
C 	 34.3367 	 32.414 	 50.8148 	 
H 	 34.0673 	 32.4534 	 51.8235 	 
H 	 33.8248 	 31.5488 	 50.5094 	 
C 	 33.7829 	 33.6785 	 50.1143 	 
H 	 32.7009 	 33.7237 	 50.2605 	 
H 	 34.0331 	 33.5097 	 49.0662 	 
H 	 34.1837 	 34.5887 	 50.5423 	 
H 	 41.8853 	 33.7303 	 51.9225 	 
H 	 36.2931 	 27.6306 	 50.6889 	 
