34

S 	 39.2534 	 10.8885 	 83.0909 	 
C 	 39.7356 	 9.64238 	 81.9707 	 
C 	 40.6871 	 10.1226 	 81.0859 	 
C 	 41.1746 	 11.4368 	 81.3845 	 
C 	 40.5514 	 11.935 	 82.4761 	 
H 	 41.9417 	 11.9454 	 80.8134 	 
C 	 41.2108 	 9.29804 	 79.9916 	 
H 	 40.9454 	 8.28123 	 80.1335 	 
H 	 42.2287 	 9.38846 	 79.9315 	 
C 	 40.6465 	 9.62799 	 78.5038 	 
H 	 39.5999 	 9.39881 	 78.638 	 
H 	 40.6019 	 10.6571 	 78.2588 	 
C 	 41.4654 	 8.87918 	 77.4069 	 
H 	 42.3962 	 9.44342 	 77.3817 	 
H 	 41.6515 	 7.82837 	 77.6781 	 
H 	 41.0054 	 8.91109 	 76.4813 	 
S 	 39.4022 	 14.1156 	 83.6071 	 
C 	 40.4679 	 15.412 	 84.2323 	 
C 	 41.785 	 15.1408 	 84.0311 	 
C 	 41.9633 	 13.8872 	 83.3347 	 
C 	 40.7774 	 13.2719 	 83.0355 	 
H 	 42.5975 	 15.7107 	 84.4591 	 
C 	 43.4078 	 13.3633 	 83.2186 	 
H 	 44.1885 	 14.0606 	 83.5524 	 
H 	 43.5546 	 13.1621 	 82.1307 	 
C 	 43.8084 	 12.1625 	 84.1791 	 
H 	 43.2071 	 11.3042 	 83.7775 	 
H 	 43.3421 	 12.3573 	 85.194 	 
C 	 45.2125 	 11.5015 	 84.1272 	 
H 	 45.2105 	 10.614 	 84.8341 	 
H 	 45.933 	 12.1733 	 84.5154 	 
H 	 45.4324 	 11.2453 	 83.1189 	 
H 	 39.2836 	 8.6504 	 81.9082 	 
H 	 40.1526 	 16.3172 	 84.6941 	 
