34

S 	 -48.8981 	 38.9914 	 84.4495 	 
C 	 -48.214 	 37.6931 	 83.4384 	 
C 	 -48.2029 	 38.0367 	 82.1232 	 
C 	 -48.575 	 39.4711 	 81.9392 	 
C 	 -48.9629 	 40.0838 	 83.0994 	 
H 	 -48.5737 	 39.9671 	 80.9799 	 
C 	 -47.841 	 37.1539 	 81.0108 	 
H 	 -47.2934 	 36.2965 	 81.4634 	 
H 	 -47.1388 	 37.7117 	 80.4034 	 
C 	 -48.9428 	 36.6072 	 80.0928 	 
H 	 -48.4436 	 36.1678 	 79.2584 	 
H 	 -49.5688 	 35.8937 	 80.633 	 
C 	 -49.8579 	 37.7213 	 79.5405 	 
H 	 -50.5728 	 38.2324 	 80.2217 	 
H 	 -49.3297 	 38.6454 	 79.0768 	 
H 	 -50.4057 	 37.3046 	 78.6629 	 
S 	 -48.291 	 42.4787 	 84.15 	 
C 	 -49.3233 	 43.8385 	 83.8783 	 
C 	 -50.222 	 43.5994 	 82.8394 	 
C 	 -50.2091 	 42.2093 	 82.4708 	 
C 	 -49.3382 	 41.4628 	 83.2487 	 
H 	 -50.9013 	 44.4102 	 82.5012 	 
C 	 -51.236 	 41.6969 	 81.4383 	 
H 	 -50.6712 	 40.9708 	 80.9268 	 
H 	 -51.5391 	 42.4499 	 80.7149 	 
C 	 -52.3711 	 40.9521 	 82.1175 	 
H 	 -52.1272 	 40.1443 	 82.8226 	 
H 	 -52.847 	 40.3843 	 81.3207 	 
C 	 -53.4332 	 41.8595 	 82.7442 	 
H 	 -54.0575 	 42.2646 	 81.9796 	 
H 	 -52.9441 	 42.6719 	 83.3924 	 
H 	 -54.1311 	 41.2968 	 83.2146 	 
H 	 -47.9916 	 36.7138 	 83.6414 	 
H 	 -49.2587 	 44.7973 	 84.4397 	 
