34

S 	 54.9043 	 5.2966 	 65.2041 	 
C 	 55.6685 	 6.77786 	 65.7251 	 
C 	 54.7782 	 7.86976 	 65.4978 	 
C 	 53.6853 	 7.43212 	 64.6939 	 
C 	 53.761 	 6.12962 	 64.2629 	 
H 	 52.9709 	 8.11241 	 64.2663 	 
C 	 55.0399 	 9.35422 	 65.8699 	 
H 	 55.1097 	 9.41996 	 66.9372 	 
H 	 54.2389 	 9.99969 	 65.5295 	 
C 	 56.3956 	 9.95111 	 65.2863 	 
H 	 57.0782 	 9.29988 	 65.8091 	 
H 	 56.4728 	 9.75435 	 64.2653 	 
C 	 56.5292 	 11.4126 	 65.54 	 
H 	 55.7084 	 11.9557 	 65.1537 	 
H 	 56.6412 	 11.5719 	 66.5574 	 
H 	 57.4978 	 11.6663 	 65.0838 	 
S 	 51.8832 	 4.15593 	 64.3008 	 
C 	 50.8218 	 3.9075 	 62.9396 	 
C 	 50.9415 	 4.93599 	 62.0644 	 
C 	 52.1162 	 5.75989 	 62.2737 	 
C 	 52.7244 	 5.48031 	 63.4768 	 
H 	 50.2047 	 4.93682 	 61.2557 	 
C 	 52.4324 	 6.92539 	 61.3846 	 
H 	 53.2641 	 7.49746 	 61.9377 	 
H 	 51.7617 	 7.78974 	 61.3883 	 
C 	 52.8113 	 6.4907 	 59.8995 	 
H 	 51.873 	 6.0249 	 59.4311 	 
H 	 53.4504 	 5.58752 	 59.9158 	 
C 	 53.4119 	 7.54289 	 58.9498 	 
H 	 53.5977 	 7.06416 	 57.9842 	 
H 	 54.3642 	 7.92898 	 59.3326 	 
H 	 52.8099 	 8.46563 	 58.7424 	 
H 	 56.6488 	 6.88015 	 66.26 	 
H 	 50.1004 	 3.07274 	 62.8332 	 
