34

S 	 7.91408 	 -13.9327 	 69.995 	 
C 	 7.5487 	 -14.4887 	 68.342 	 
C 	 7.2987 	 -13.4393 	 67.4505 	 
C 	 7.53846 	 -12.1587 	 68.1472 	 
C 	 8.11925 	 -12.2639 	 69.4127 	 
H 	 7.5615 	 -11.2027 	 67.6677 	 
C 	 6.83477 	 -13.5888 	 66.0181 	 
H 	 6.47824 	 -14.664 	 65.9278 	 
H 	 7.76302 	 -13.5099 	 65.3486 	 
C 	 5.74925 	 -12.6742 	 65.539 	 
H 	 6.25967 	 -11.7126 	 65.5319 	 
H 	 5.54948 	 -12.722 	 64.4616 	 
C 	 4.43729 	 -12.555 	 66.443 	 
H 	 4.00531 	 -11.6543 	 66.2856 	 
H 	 3.74685 	 -13.3315 	 66.2406 	 
H 	 4.65958 	 -12.6906 	 67.4958 	 
S 	 10.3317 	 -11.4977 	 70.9854 	 
C 	 10.4421 	 -9.89622 	 71.5748 	 
C 	 9.39838 	 -9.14338 	 71.1178 	 
C 	 8.33687 	 -9.87802 	 70.4249 	 
C 	 8.77966 	 -11.2022 	 70.1288 	 
H 	 9.2601 	 -8.14135 	 71.3652 	 
C 	 7.02153 	 -9.28395 	 70.245 	 
H 	 6.62857 	 -9.69106 	 69.3307 	 
H 	 6.99946 	 -8.22794 	 70.0273 	 
C 	 5.9443 	 -9.51224 	 71.2939 	 
H 	 5.08634 	 -9.00665 	 70.7663 	 
H 	 6.06219 	 -8.9914 	 72.1912 	 
C 	 5.54823 	 -10.9263 	 71.4965 	 
H 	 4.56999 	 -10.8468 	 72.0076 	 
H 	 6.26723 	 -11.5703 	 72.07 	 
H 	 5.37462 	 -11.3116 	 70.4875 	 
H 	 7.25387 	 -15.4757 	 68.0605 	 
H 	 11.3208 	 -9.47821 	 72.0467 	 
