34

S 	 11.6623 	 -5.93906 	 71.9232 	 
C 	 11.4488 	 -4.32182 	 72.5106 	 
C 	 12.1177 	 -3.35605 	 71.7214 	 
C 	 12.8722 	 -4.00876 	 70.688 	 
C 	 12.7652 	 -5.3535 	 70.7123 	 
H 	 13.4885 	 -3.5378 	 69.9533 	 
C 	 11.8496 	 -1.92579 	 71.6653 	 
H 	 12.7643 	 -1.32874 	 71.6838 	 
H 	 11.3918 	 -1.63018 	 72.6229 	 
C 	 10.8545 	 -1.44222 	 70.6566 	 
H 	 11.1956 	 -1.88132 	 69.6785 	 
H 	 9.89236 	 -1.86558 	 70.8357 	 
C 	 10.6939 	 0.11207 	 70.4298 	 
H 	 11.6534 	 0.490032 	 70.2367 	 
H 	 10.0203 	 0.477242 	 69.6374 	 
H 	 10.3147 	 0.605211 	 71.3001 	 
S 	 14.0174 	 -7.72259 	 70.1547 	 
C 	 14.2997 	 -8.14907 	 68.4667 	 
C 	 13.7798 	 -7.22423 	 67.6236 	 
C 	 13.0593 	 -6.17958 	 68.2614 	 
C 	 13.1454 	 -6.26234 	 69.6497 	 
H 	 13.9478 	 -7.38949 	 66.5488 	 
C 	 12.386 	 -5.11166 	 67.4871 	 
H 	 12.7686 	 -4.94236 	 66.4648 	 
H 	 12.7026 	 -4.19072 	 68.0693 	 
C 	 10.8354 	 -5.28637 	 67.4472 	 
H 	 10.4719 	 -5.6997 	 68.3765 	 
H 	 10.617 	 -6.0152 	 66.7315 	 
C 	 10.1283 	 -3.99743 	 67.1124 	 
H 	 9.11349 	 -4.18369 	 66.942 	 
H 	 10.5224 	 -3.59605 	 66.1922 	 
H 	 10.2027 	 -3.20827 	 67.878 	 
H 	 10.7194 	 -4.09392 	 73.2636 	 
H 	 14.9301 	 -8.93816 	 68.1032 	 
