34

S 	 -92.9266 	 60.3293 	 128.558 	 
C 	 -91.469 	 60.7247 	 129.533 	 
C 	 -91.6888 	 60.7212 	 130.886 	 
C 	 -93.0829 	 60.3123 	 131.169 	 
C 	 -93.9102 	 60.2997 	 130.029 	 
H 	 -93.4766 	 60.1891 	 132.171 	 
C 	 -90.8404 	 61.1918 	 131.993 	 
H 	 -91.5179 	 61.849 	 132.506 	 
H 	 -90.058 	 61.8713 	 131.561 	 
C 	 -90.2064 	 60.1271 	 132.96 	 
H 	 -90.9189 	 59.3469 	 133.206 	 
H 	 -89.3239 	 59.6049 	 132.526 	 
C 	 -89.8078 	 60.6182 	 134.337 	 
H 	 -88.9983 	 61.3431 	 134.342 	 
H 	 -90.6086 	 61.201 	 134.726 	 
H 	 -89.5374 	 59.7371 	 134.925 	 
S 	 -96.1013 	 58.6191 	 129.191 	 
C 	 -97.7074 	 59.1063 	 129.605 	 
C 	 -97.6869 	 60.2912 	 130.277 	 
C 	 -96.3979 	 60.8727 	 130.51 	 
C 	 -95.3477 	 60.056 	 130.026 	 
H 	 -98.6035 	 60.8134 	 130.605 	 
C 	 -96.227 	 62.2096 	 131.195 	 
H 	 -96.8758 	 63.0053 	 130.842 	 
H 	 -95.2845 	 62.5788 	 130.889 	 
C 	 -95.9973 	 62.1402 	 132.667 	 
H 	 -95.1483 	 61.4669 	 132.985 	 
H 	 -96.9522 	 61.7677 	 133.144 	 
C 	 -95.7979 	 63.5681 	 133.242 	 
H 	 -96.6925 	 64.2341 	 133.053 	 
H 	 -94.9111 	 64.0611 	 132.817 	 
H 	 -95.6657 	 63.4529 	 134.31 	 
H 	 -90.5773 	 61.2025 	 129.185 	 
H 	 -98.5492 	 58.4462 	 129.396 	 
