34

S 	 -75.292 	 47.264 	 121.54 	 
C 	 -76.2396 	 45.8349 	 121.069 	 
C 	 -76.9154 	 45.337 	 122.191 	 
C 	 -76.501 	 45.973 	 123.374 	 
C 	 -75.6646 	 46.9758 	 123.227 	 
H 	 -76.819 	 45.6966 	 124.35 	 
C 	 -77.7621 	 44.1119 	 122.033 	 
H 	 -78.1015 	 44.0142 	 121.042 	 
H 	 -78.6164 	 44.3309 	 122.658 	 
C 	 -77.136 	 42.8224 	 122.589 	 
H 	 -76.8971 	 43.0348 	 123.657 	 
H 	 -77.8144 	 41.9756 	 122.559 	 
C 	 -75.9668 	 42.3215 	 121.719 	 
H 	 -75.7553 	 41.3775 	 122.229 	 
H 	 -76.1622 	 42.2376 	 120.658 	 
H 	 -75.206 	 43.0088 	 121.858 	 
S 	 -75.9776 	 48.0938 	 125.801 	 
C 	 -74.5564 	 48.8046 	 126.573 	 
C 	 -73.4954 	 48.7598 	 125.75 	 
C 	 -73.725 	 48.1053 	 124.526 	 
C 	 -75.0038 	 47.6769 	 124.373 	 
H 	 -72.5132 	 49.173 	 126.075 	 
C 	 -72.5953 	 48.041 	 123.511 	 
H 	 -72.5692 	 47.1082 	 122.929 	 
H 	 -71.6653 	 48.0481 	 124.181 	 
C 	 -72.515 	 49.3082 	 122.641 	 
H 	 -72.567 	 50.2452 	 123.208 	 
H 	 -73.4027 	 49.3084 	 122.025 	 
C 	 -71.2096 	 49.275 	 121.891 	 
H 	 -70.8783 	 50.3337 	 121.72 	 
H 	 -71.4492 	 48.8866 	 120.899 	 
H 	 -70.3977 	 48.6537 	 122.39 	 
H 	 -76.2355 	 45.4704 	 120.062 	 
H 	 -74.3961 	 48.9455 	 127.611 	 
