34

S 	 13.0553 	 -10.4247 	 91.8184 	 
C 	 12.7872 	 -9.55458 	 93.2551 	 
C 	 11.8445 	 -8.547 	 93.0776 	 
C 	 11.0694 	 -8.7463 	 91.899 	 
C 	 11.548 	 -9.82085 	 91.197 	 
H 	 10.2764 	 -8.15059 	 91.4196 	 
C 	 11.7078 	 -7.33895 	 93.923 	 
H 	 12.1903 	 -6.42876 	 93.4673 	 
H 	 12.2198 	 -7.52976 	 94.84 	 
C 	 10.2385 	 -6.92645 	 94.2475 	 
H 	 9.72137 	 -6.43976 	 93.4037 	 
H 	 9.73594 	 -7.91734 	 94.5456 	 
C 	 10.2104 	 -6.05177 	 95.4802 	 
H 	 9.12806 	 -5.78362 	 95.5206 	 
H 	 10.5976 	 -6.53746 	 96.3825 	 
H 	 10.7458 	 -5.10977 	 95.3008 	 
S 	 12.1483 	 -10.6074 	 88.6445 	 
C 	 10.814 	 -10.9801 	 87.5761 	 
C 	 9.582 	 -10.9815 	 88.2212 	 
C 	 9.68818 	 -10.5096 	 89.5634 	 
C 	 11.0116 	 -10.2019 	 89.921 	 
H 	 8.71538 	 -11.2563 	 87.6884 	 
C 	 8.54979 	 -10.4999 	 90.5144 	 
H 	 8.87841 	 -10.3813 	 91.5411 	 
H 	 8.04988 	 -11.4879 	 90.5541 	 
C 	 7.58 	 -9.33239 	 90.3283 	 
H 	 7.19154 	 -9.33173 	 89.29 	 
H 	 8.12745 	 -8.35431 	 90.5359 	 
C 	 6.28178 	 -9.44142 	 91.1179 	 
H 	 5.63676 	 -10.2142 	 90.731 	 
H 	 5.61807 	 -8.57357 	 90.9796 	 
H 	 6.45287 	 -9.52035 	 92.1404 	 
H 	 13.5609 	 -9.68856 	 94.0538 	 
H 	 11.0013 	 -11.254 	 86.5426 	 
