34

S 	 6.41186 	 23.7947 	 70.263 	 
C 	 6.38366 	 22.4799 	 69.1052 	 
C 	 5.40567 	 22.7297 	 68.1565 	 
C 	 4.64545 	 23.9894 	 68.4476 	 
C 	 4.92632 	 24.5709 	 69.6176 	 
H 	 3.90516 	 24.2649 	 67.8107 	 
C 	 5.11164 	 21.9624 	 66.8607 	 
H 	 4.11743 	 22.3831 	 66.5336 	 
H 	 5.00265 	 20.8595 	 67.0373 	 
C 	 6.2316 	 22.2154 	 65.8401 	 
H 	 5.97674 	 21.5862 	 64.9664 	 
H 	 6.1023 	 23.2451 	 65.4797 	 
C 	 7.6202 	 21.7779 	 66.2395 	 
H 	 8.21643 	 21.9916 	 65.4082 	 
H 	 7.98913 	 22.3171 	 67.0811 	 
H 	 7.75224 	 20.6905 	 66.4195 	 
S 	 4.19367 	 26.0349 	 71.8227 	 
C 	 4.04679 	 27.7826 	 71.7348 	 
C 	 4.21749 	 28.1486 	 70.4615 	 
C 	 4.49808 	 27.1263 	 69.5135 	 
C 	 4.48074 	 25.8549 	 70.0694 	 
H 	 4.02527 	 29.178 	 70.2051 	 
C 	 4.98808 	 27.4362 	 68.0931 	 
H 	 4.60172 	 28.4546 	 67.8644 	 
H 	 4.41338 	 26.7991 	 67.4721 	 
C 	 6.51736 	 27.3013 	 67.8155 	 
H 	 6.64064 	 27.6043 	 66.7748 	 
H 	 6.69851 	 26.1793 	 67.7235 	 
C 	 7.54062 	 28.0132 	 68.7909 	 
H 	 7.32942 	 28.9994 	 69.0977 	 
H 	 8.54133 	 28.045 	 68.3572 	 
H 	 7.80694 	 27.4575 	 69.646 	 
H 	 7.03515 	 21.6029 	 69.0503 	 
H 	 3.60677 	 28.3476 	 72.5193 	 
