34

S 	 37.4003 	 8.29339 	 91.4841 	 
C 	 38.7695 	 8.06141 	 90.4086 	 
C 	 38.4864 	 8.51165 	 89.1439 	 
C 	 37.1711 	 9.00043 	 89.0219 	 
C 	 36.4674 	 9.03248 	 90.1806 	 
H 	 36.7036 	 9.46689 	 88.1289 	 
C 	 39.5593 	 8.56334 	 88.0663 	 
H 	 39.577 	 7.52759 	 87.6168 	 
H 	 40.4873 	 8.6513 	 88.5654 	 
C 	 39.4341 	 9.59078 	 86.9345 	 
H 	 38.9678 	 10.5219 	 87.4087 	 
H 	 40.4722 	 9.89571 	 86.7782 	 
C 	 38.5456 	 9.13704 	 85.725 	 
H 	 37.5288 	 8.91296 	 86.0136 	 
H 	 38.5594 	 9.83505 	 84.8675 	 
H 	 38.8849 	 8.13433 	 85.329 	 
S 	 34.0364 	 8.66212 	 91.4233 	 
C 	 32.6461 	 9.58291 	 91.0077 	 
C 	 33.0124 	 10.5624 	 90.0889 	 
C 	 34.4167 	 10.6084 	 89.6467 	 
C 	 35.086 	 9.53563 	 90.2829 	 
H 	 32.2607 	 11.224 	 89.6129 	 
C 	 34.9027 	 11.5393 	 88.5238 	 
H 	 35.8367 	 12.1102 	 88.6462 	 
H 	 34.229 	 12.2887 	 88.6779 	 
C 	 34.7146 	 11.0961 	 86.9975 	 
H 	 35.5018 	 10.563 	 86.5744 	 
H 	 34.4473 	 11.9644 	 86.3181 	 
C 	 33.4067 	 10.2145 	 86.7283 	 
H 	 33.318 	 9.88807 	 85.7003 	 
H 	 32.5006 	 10.8038 	 87.0213 	 
H 	 33.4391 	 9.29189 	 87.3006 	 
H 	 39.7368 	 7.61467 	 90.6549 	 
H 	 31.6474 	 9.36085 	 91.4583 	 
