34

S 	 -99.1229 	 55.7346 	 114.814 	 
C 	 -97.4567 	 56.259 	 115.083 	 
C 	 -97.1351 	 56.3023 	 116.472 	 
C 	 -98.2112 	 55.856 	 117.281 	 
C 	 -99.3485 	 55.5702 	 116.594 	 
H 	 -98.3051 	 55.8955 	 118.402 	 
C 	 -95.8563 	 56.8713 	 117.113 	 
H 	 -94.9275 	 56.6857 	 116.545 	 
H 	 -95.7214 	 56.3283 	 117.998 	 
C 	 -96.1781 	 58.2671 	 117.716 	 
H 	 -96.9918 	 58.2268 	 118.47 	 
H 	 -95.2393 	 58.6221 	 118.212 	 
C 	 -96.3513 	 59.3896 	 116.606 	 
H 	 -95.6784 	 59.3154 	 115.666 	 
H 	 -97.3379 	 59.2757 	 116.242 	 
H 	 -96.1579 	 60.3929 	 117.002 	 
S 	 -101.298 	 53.6482 	 116.311 	 
C 	 -102.617 	 53.573 	 117.485 	 
C 	 -102.441 	 54.4834 	 118.575 	 
C 	 -101.23 	 55.2099 	 118.368 	 
C 	 -100.569 	 55.0044 	 117.143 	 
H 	 -103.058 	 54.5132 	 119.46 	 
C 	 -100.777 	 56.2841 	 119.38 	 
H 	 -101.727 	 56.8034 	 119.696 	 
H 	 -100.207 	 57.0096 	 118.871 	 
C 	 -100.019 	 55.8259 	 120.614 	 
H 	 -99.1121 	 55.2133 	 120.27 	 
H 	 -100.521 	 55.0532 	 121.26 	 
C 	 -99.7359 	 57.0318 	 121.501 	 
H 	 -99.1113 	 57.7956 	 120.949 	 
H 	 -99.1848 	 56.808 	 122.393 	 
H 	 -100.613 	 57.5484 	 121.838 	 
H 	 -96.8259 	 56.6455 	 114.276 	 
H 	 -103.466 	 52.8468 	 117.473 	 
