34

S 	 -42.4845 	 26.6711 	 84.7994 	 
C 	 -42.8869 	 25.3187 	 85.7993 	 
C 	 -43.2213 	 24.2464 	 85.0415 	 
C 	 -43.2254 	 24.4977 	 83.6202 	 
C 	 -42.6934 	 25.7565 	 83.3366 	 
H 	 -43.5594 	 23.7764 	 82.841 	 
C 	 -43.625 	 22.9433 	 85.6564 	 
H 	 -44.5238 	 22.5264 	 85.3002 	 
H 	 -43.831 	 23.1013 	 86.7067 	 
C 	 -42.5771 	 21.87 	 85.5479 	 
H 	 -43.0581 	 20.9192 	 85.6693 	 
H 	 -42.3822 	 21.8656 	 84.4984 	 
C 	 -41.4486 	 22.0995 	 86.4371 	 
H 	 -41.0692 	 21.117 	 86.5783 	 
H 	 -40.8109 	 22.9031 	 86.0925 	 
H 	 -41.7037 	 22.3604 	 87.4437 	 
S 	 -44.1028 	 27.1185 	 81.3759 	 
C 	 -43.3789 	 27.5217 	 79.8386 	 
C 	 -42.2733 	 26.7378 	 79.697 	 
C 	 -41.8154 	 26.1379 	 80.9329 	 
C 	 -42.6424 	 26.3589 	 82.0334 	 
H 	 -41.8159 	 26.6277 	 78.7027 	 
C 	 -40.5665 	 25.2584 	 81.0064 	 
H 	 -40.0313 	 25.5989 	 81.8905 	 
H 	 -39.8874 	 25.4304 	 80.165 	 
C 	 -40.7573 	 23.72 	 81.1707 	 
H 	 -41.3786 	 23.2731 	 81.9479 	 
H 	 -39.7884 	 23.4193 	 81.4279 	 
C 	 -41.1171 	 22.9257 	 79.8946 	 
H 	 -40.9018 	 21.9053 	 79.903 	 
H 	 -40.715 	 23.3325 	 78.9191 	 
H 	 -42.1878 	 22.9151 	 79.836 	 
H 	 -42.8611 	 25.3179 	 86.8333 	 
H 	 -43.9055 	 27.9604 	 79.0013 	 
