34

S 	 16.5702 	 23.7155 	 62.1717 	 
C 	 16.2467 	 22.3588 	 61.0668 	 
C 	 14.8927 	 22.0875 	 60.9984 	 
C 	 14.0733 	 22.8952 	 61.8353 	 
C 	 14.8121 	 23.8915 	 62.4438 	 
H 	 13.0115 	 22.975 	 61.9257 	 
C 	 14.2561 	 21.0397 	 60.1898 	 
H 	 14.5241 	 21.2318 	 59.118 	 
H 	 13.1363 	 21.2208 	 60.249 	 
C 	 14.3388 	 19.6475 	 60.5298 	 
H 	 13.8598 	 18.9103 	 59.822 	 
H 	 15.3584 	 19.2871 	 60.6226 	 
C 	 13.7498 	 19.473 	 61.9742 	 
H 	 14.1177 	 20.2703 	 62.6809 	 
H 	 12.6856 	 19.4834 	 61.9543 	 
H 	 14.0744 	 18.5092 	 62.3765 	 
S 	 15.2473 	 25.231 	 64.8292 	 
C 	 14.1647 	 26.3999 	 65.4182 	 
C 	 13.2202 	 26.6422 	 64.3816 	 
C 	 13.2812 	 25.7876 	 63.2279 	 
C 	 14.3221 	 24.931 	 63.353 	 
H 	 12.4919 	 27.4141 	 64.5251 	 
C 	 12.4907 	 25.9986 	 61.9098 	 
H 	 12.3447 	 25.0992 	 61.2652 	 
H 	 13.1275 	 26.7561 	 61.3462 	 
C 	 11.0486 	 26.5061 	 62.0797 	 
H 	 10.6605 	 26.7792 	 61.0661 	 
H 	 11.062 	 27.3725 	 62.7333 	 
C 	 10.1685 	 25.4287 	 62.7187 	 
H 	 10.5932 	 25.224 	 63.6771 	 
H 	 10.2817 	 24.4728 	 62.1064 	 
H 	 9.10159 	 25.7239 	 62.7047 	 
H 	 16.8997 	 21.8211 	 60.4062 	 
H 	 13.9907 	 26.8415 	 66.3646 	 
