34

S 	 32.1109 	 18.9755 	 69.8673 	 
C 	 31.8599 	 17.3298 	 70.5041 	 
C 	 32.2096 	 17.2808 	 71.8567 	 
C 	 32.8547 	 18.4947 	 72.2588 	 
C 	 32.9536 	 19.4963 	 71.2535 	 
H 	 33.3053 	 18.6082 	 73.257 	 
C 	 31.9488 	 16.0796 	 72.8143 	 
H 	 31.574 	 16.4228 	 73.8045 	 
H 	 32.9371 	 15.7218 	 73.1862 	 
C 	 31.1418 	 14.8491 	 72.4232 	 
H 	 30.0846 	 15.1824 	 72.3119 	 
H 	 31.426 	 14.6277 	 71.3833 	 
C 	 31.2361 	 13.7911 	 73.5125 	 
H 	 30.9556 	 12.853 	 73.112 	 
H 	 32.2952 	 13.769 	 73.8671 	 
H 	 30.5806 	 13.9852 	 74.4016 	 
S 	 32.378 	 22.133 	 71.0132 	 
C 	 33.5812 	 23.3225 	 71.4736 	 
C 	 34.7667 	 22.7397 	 71.8257 	 
C 	 34.733 	 21.3618 	 71.8732 	 
C 	 33.5287 	 20.8773 	 71.3879 	 
H 	 35.5775 	 23.3592 	 71.922 	 
C 	 35.9181 	 20.5576 	 72.3838 	 
H 	 35.5451 	 19.6978 	 72.9379 	 
H 	 36.3338 	 21.1285 	 73.241 	 
C 	 37.0414 	 20.218 	 71.3276 	 
H 	 36.5145 	 19.7873 	 70.4693 	 
H 	 37.5391 	 19.3623 	 71.7046 	 
C 	 38.0407 	 21.3043 	 70.9284 	 
H 	 38.579 	 21.8004 	 71.7354 	 
H 	 37.7102 	 22.0646 	 70.2728 	 
H 	 38.8787 	 20.8806 	 70.3464 	 
H 	 31.3827 	 16.4522 	 70.0076 	 
H 	 33.5987 	 24.3473 	 71.1339 	 
