34

S 	 -5.94906 	 43.3569 	 34.3976 	 
C 	 -6.25242 	 41.7468 	 34.9704 	 
C 	 -5.78568 	 41.6581 	 36.3012 	 
C 	 -4.98503 	 42.8214 	 36.6681 	 
C 	 -5.00683 	 43.8638 	 35.7607 	 
H 	 -4.48953 	 43.011 	 37.618 	 
C 	 -6.02371 	 40.4869 	 37.2769 	 
H 	 -5.93524 	 39.7006 	 36.6439 	 
H 	 -7.06139 	 40.4509 	 37.418 	 
C 	 -5.00653 	 40.295 	 38.4468 	 
H 	 -3.98768 	 40.3718 	 38.067 	 
H 	 -4.98574 	 41.113 	 39.1541 	 
C 	 -5.18705 	 38.9336 	 39.0701 	 
H 	 -4.41018 	 38.7754 	 39.8171 	 
H 	 -6.10315 	 38.8451 	 39.6225 	 
H 	 -5.05231 	 38.0749 	 38.3195 	 
S 	 -3.29165 	 45.4512 	 37.2468 	 
C 	 -3.10985 	 47.0796 	 36.8742 	 
C 	 -3.71499 	 47.4357 	 35.6794 	 
C 	 -4.34953 	 46.3317 	 35.0183 	 
C 	 -4.29436 	 45.1691 	 35.8613 	 
H 	 -3.61908 	 48.4771 	 35.2933 	 
C 	 -4.9296 	 46.4643 	 33.6381 	 
H 	 -5.21718 	 47.4633 	 33.3425 	 
H 	 -5.82931 	 45.9718 	 33.7296 	 
C 	 -3.95533 	 45.9032 	 32.5217 	 
H 	 -3.75123 	 44.896 	 32.7908 	 
H 	 -2.98347 	 46.4533 	 32.6123 	 
C 	 -4.61197 	 45.8872 	 31.1389 	 
H 	 -4.04753 	 45.3946 	 30.3471 	 
H 	 -4.82432 	 46.8484 	 30.6703 	 
H 	 -5.58997 	 45.4051 	 31.2083 	 
H 	 -6.77199 	 40.9962 	 34.3602 	 
H 	 -2.57052 	 47.8642 	 37.4116 	 
