34

S 	 -46.184 	 35.9033 	 98.586 	 
C 	 -47.3081 	 36.6258 	 97.441 	 
C 	 -48.6205 	 36.6249 	 97.8776 	 
C 	 -48.6966 	 35.9419 	 99.0844 	 
C 	 -47.5316 	 35.5034 	 99.6538 	 
H 	 -49.6143 	 35.8763 	 99.5645 	 
C 	 -49.7612 	 37.2698 	 97.1611 	 
H 	 -49.4524 	 38.1264 	 96.6272 	 
H 	 -50.5422 	 37.7531 	 97.9075 	 
C 	 -50.4166 	 36.2433 	 96.2146 	 
H 	 -51.1718 	 36.7729 	 95.6716 	 
H 	 -49.6083 	 36.0011 	 95.5843 	 
C 	 -51.0841 	 35.1232 	 96.9981 	 
H 	 -51.9592 	 35.3516 	 97.5855 	 
H 	 -51.4203 	 34.4758 	 96.1781 	 
H 	 -50.3717 	 34.6404 	 97.656 	 
S 	 -46.0692 	 33.5819 	 100.885 	 
C 	 -46.4114 	 33.1697 	 102.561 	 
C 	 -47.4058 	 33.9447 	 103.086 	 
C 	 -48.0166 	 34.8037 	 102.151 	 
C 	 -47.363 	 34.8275 	 100.925 	 
H 	 -47.7239 	 33.8417 	 104.155 	 
C 	 -49.1805 	 35.6264 	 102.533 	 
H 	 -49.8124 	 34.9517 	 103.188 	 
H 	 -49.9095 	 35.9347 	 101.659 	 
C 	 -48.8764 	 36.9888 	 103.181 	 
H 	 -48.3013 	 36.8723 	 104.093 	 
H 	 -49.9154 	 37.4388 	 103.446 	 
C 	 -48.151 	 38.0526 	 102.284 	 
H 	 -48.2216 	 39.0794 	 102.727 	 
H 	 -48.6664 	 37.9688 	 101.321 	 
H 	 -47.0916 	 37.7389 	 102.083 	 
H 	 -46.9467 	 36.9201 	 96.5455 	 
H 	 -45.967 	 32.3962 	 103.142 	 
