34

S 	 -36.5644 	 35.5998 	 84.07 	 
C 	 -35.4432 	 36.0182 	 82.8539 	 
C 	 -35.9771 	 36.0605 	 81.5771 	 
C 	 -37.3982 	 35.8966 	 81.6233 	 
C 	 -37.9142 	 35.6269 	 82.8725 	 
H 	 -38.0737 	 36 	 80.7968 	 
C 	 -35.2844 	 36.6301 	 80.2973 	 
H 	 -35.827 	 36.3002 	 79.423 	 
H 	 -34.2117 	 36.2642 	 80.1911 	 
C 	 -35.2198 	 38.1783 	 80.352 	 
H 	 -36.3363 	 38.384 	 80.2042 	 
H 	 -34.8171 	 38.3708 	 81.3569 	 
C 	 -34.1629 	 38.8435 	 79.4234 	 
H 	 -33.2464 	 38.8574 	 79.9515 	 
H 	 -33.8547 	 38.2416 	 78.5547 	 
H 	 -34.4158 	 39.8333 	 79.1011 	 
S 	 -39.769 	 36.3477 	 84.6878 	 
C 	 -41.4278 	 35.8894 	 84.4812 	 
C 	 -41.6006 	 35.1831 	 83.3568 	 
C 	 -40.3638 	 34.8898 	 82.5939 	 
C 	 -39.2459 	 35.453 	 83.2741 	 
H 	 -42.6312 	 34.9181 	 83.1337 	 
C 	 -40.2329 	 34.0064 	 81.368 	 
H 	 -39.2922 	 33.4431 	 81.4924 	 
H 	 -40.0507 	 34.6388 	 80.5452 	 
C 	 -41.3923 	 33.1019 	 81.172 	 
H 	 -42.3977 	 33.6374 	 81.173 	 
H 	 -41.5976 	 32.4774 	 82.0246 	 
C 	 -41.1806 	 32.1633 	 79.9414 	 
H 	 -40.3946 	 31.4241 	 80.226 	 
H 	 -40.9078 	 32.6313 	 78.9578 	 
H 	 -42.0887 	 31.5815 	 79.725 	 
H 	 -34.4224 	 36.4313 	 83.0132 	 
H 	 -42.2401 	 36.2648 	 85.1052 	 
