34

S 	 6.02476 	 -2.91401 	 89.2341 	 
C 	 7.5995 	 -2.72233 	 89.8516 	 
C 	 8.54808 	 -3.46444 	 89.1877 	 
C 	 8.01365 	 -4.345 	 88.2236 	 
C 	 6.65302 	 -4.25231 	 88.2155 	 
H 	 8.41662 	 -5.0865 	 87.4913 	 
C 	 10.0579 	 -3.33955 	 89.4153 	 
H 	 10.2965 	 -4.36405 	 89.5517 	 
H 	 10.2283 	 -2.93281 	 90.3002 	 
C 	 10.9 	 -2.83538 	 88.2404 	 
H 	 10.227 	 -2.90973 	 87.3826 	 
H 	 11.3658 	 -1.82349 	 88.4193 	 
C 	 12.054 	 -3.76665 	 87.9054 	 
H 	 12.7725 	 -3.37654 	 87.1274 	 
H 	 12.8435 	 -3.87732 	 88.6651 	 
H 	 11.7341 	 -4.80525 	 87.7215 	 
S 	 5.00699 	 -6.42655 	 88.0653 	 
C 	 4.00419 	 -6.59383 	 86.6241 	 
C 	 4.27596 	 -5.7258 	 85.6054 	 
C 	 5.29742 	 -4.77412 	 86.0578 	 
C 	 5.71588 	 -4.99746 	 87.3299 	 
H 	 3.74788 	 -5.85188 	 84.6556 	 
C 	 5.92674 	 -3.70458 	 85.114 	 
H 	 6.24846 	 -2.82021 	 85.6424 	 
H 	 5.01518 	 -3.39936 	 84.6052 	 
C 	 6.98797 	 -4.2632 	 84.2509 	 
H 	 6.58974 	 -4.99784 	 83.5352 	 
H 	 7.64634 	 -4.73846 	 84.916 	 
C 	 7.64033 	 -3.06917 	 83.5081 	 
H 	 8.33658 	 -3.39124 	 82.7586 	 
H 	 8.09831 	 -2.29144 	 84.1601 	 
H 	 6.81735 	 -2.50907 	 82.9501 	 
H 	 7.87094 	 -1.93757 	 90.5367 	 
H 	 3.31126 	 -7.45118 	 86.5101 	 
