34

S 	 4.93405 	 -5.47104 	 91.691 	 
C 	 5.39987 	 -4.6242 	 93.1712 	 
C 	 4.23491 	 -4.46131 	 93.9249 	 
C 	 3.05383 	 -4.93849 	 93.3477 	 
C 	 3.26692 	 -5.63658 	 92.1649 	 
H 	 2.10183 	 -4.89582 	 93.778 	 
C 	 4.1623 	 -3.63937 	 95.1463 	 
H 	 3.29981 	 -2.97232 	 94.8965 	 
H 	 5.02584 	 -3.07711 	 95.0927 	 
C 	 3.99093 	 -4.37895 	 96.4665 	 
H 	 3.82809 	 -3.75319 	 97.3497 	 
H 	 3.11393 	 -5.00359 	 96.3395 	 
C 	 5.18206 	 -5.29443 	 96.6052 	 
H 	 5.3849 	 -5.90197 	 95.7115 	 
H 	 6.03304 	 -4.69512 	 96.9395 	 
H 	 4.96103 	 -6.09073 	 97.3635 	 
S 	 2.7353 	 -5.46715 	 89.4524 	 
C 	 1.34625 	 -6.28766 	 88.7004 	 
C 	 0.541473 	 -6.82681 	 89.7248 	 
C 	 1.08929 	 -6.61558 	 91.0518 	 
C 	 2.3079 	 -5.9556 	 91.0691 	 
H 	 -0.31444 	 -7.41608 	 89.4053 	 
C 	 0.334954 	 -7.07331 	 92.2903 	 
H 	 -0.387984 	 -6.30667 	 92.5489 	 
H 	 1.05605 	 -7.1512 	 93.1506 	 
C 	 -0.363434 	 -8.45892 	 92.203 	 
H 	 0.158891 	 -9.2597 	 92.7069 	 
H 	 -0.346183 	 -8.76274 	 91.1656 	 
C 	 -1.85806 	 -8.47063 	 92.7017 	 
H 	 -2.49712 	 -9.26982 	 92.35 	 
H 	 -2.37938 	 -7.53658 	 92.522 	 
H 	 -1.81992 	 -8.54409 	 93.7534 	 
H 	 6.44574 	 -4.405 	 93.443 	 
H 	 1.09737 	 -6.34809 	 87.6322 	 
