34

S 	 -65.5171 	 41.6178 	 136.791 	 
C 	 -65.2278 	 40.3649 	 137.955 	 
C 	 -65.0527 	 39.0719 	 137.487 	 
C 	 -64.9407 	 39.0629 	 136.082 	 
C 	 -65.2651 	 40.2932 	 135.598 	 
H 	 -64.763 	 38.1482 	 135.499 	 
C 	 -64.6509 	 37.8672 	 138.335 	 
H 	 -64.8524 	 36.9597 	 137.857 	 
H 	 -65.3351 	 37.9724 	 139.134 	 
C 	 -63.2248 	 37.8758 	 138.906 	 
H 	 -62.9859 	 38.7694 	 139.441 	 
H 	 -63.2332 	 37.1001 	 139.668 	 
C 	 -62.1398 	 37.5288 	 137.849 	 
H 	 -61.7841 	 38.3528 	 137.315 	 
H 	 -61.448 	 36.8454 	 138.331 	 
H 	 -62.5673 	 36.8865 	 137.089 	 
S 	 -66.6868 	 41.4141 	 133.442 	 
C 	 -65.8896 	 41.203 	 131.888 	 
C 	 -64.6272 	 40.7248 	 131.951 	 
C 	 -64.3153 	 40.3341 	 133.297 	 
C 	 -65.2781 	 40.7174 	 134.19 	 
H 	 -64.0782 	 40.6324 	 131.1 	 
C 	 -62.9098 	 39.7973 	 133.605 	 
H 	 -62.8039 	 39.5148 	 134.655 	 
H 	 -62.2637 	 40.6765 	 133.431 	 
C 	 -62.1209 	 38.6964 	 132.785 	 
H 	 -61.096 	 38.5912 	 133.026 	 
H 	 -62.1288 	 38.937 	 131.778 	 
C 	 -62.8314 	 37.2613 	 132.997 	 
H 	 -62.4985 	 36.9013 	 133.949 	 
H 	 -62.4736 	 36.5809 	 132.344 	 
H 	 -63.9295 	 37.2376 	 132.958 	 
H 	 -65.1804 	 40.5699 	 138.995 	 
H 	 -66.2819 	 41.544 	 130.944 	 
