34

S 	 -57.9352 	 52.8591 	 135.963 	 
C 	 -57.1301 	 51.3211 	 136.087 	 
C 	 -57.7811 	 50.369 	 135.353 	 
C 	 -58.9858 	 50.8872 	 134.8 	 
C 	 -59.2686 	 52.2255 	 135.068 	 
H 	 -59.6912 	 50.4874 	 134.128 	 
C 	 -57.2402 	 49.0516 	 134.97 	 
H 	 -56.1926 	 49.2226 	 134.934 	 
H 	 -57.48 	 48.8249 	 133.869 	 
C 	 -57.6831 	 47.8891 	 135.925 	 
H 	 -58.8044 	 47.8727 	 136.037 	 
H 	 -57.4641 	 46.9267 	 135.556 	 
C 	 -56.9565 	 47.9949 	 137.292 	 
H 	 -57.0144 	 47.1073 	 137.988 	 
H 	 -55.9397 	 48.104 	 137.126 	 
H 	 -57.2157 	 48.8744 	 137.921 	 
S 	 -60.8276 	 52.8764 	 132.881 	 
C 	 -62.229 	 53.9841 	 133.074 	 
C 	 -62.1908 	 54.4942 	 134.357 	 
C 	 -61.1576 	 54.0048 	 135.226 	 
C 	 -60.4124 	 53.0329 	 134.552 	 
H 	 -62.8512 	 55.3288 	 134.621 	 
C 	 -61.0229 	 54.4879 	 136.688 	 
H 	 -60.8318 	 53.6198 	 137.335 	 
H 	 -61.9404 	 54.852 	 137.066 	 
C 	 -59.9838 	 55.606 	 137.011 	 
H 	 -60.1627 	 56.4553 	 136.281 	 
H 	 -59.0358 	 55.1023 	 136.823 	 
C 	 -60.1155 	 56.0766 	 138.48 	 
H 	 -61.1219 	 56.4833 	 138.721 	 
H 	 -59.3243 	 56.8021 	 138.593 	 
H 	 -59.9393 	 55.2761 	 139.143 	 
H 	 -56.2707 	 51.1386 	 136.728 	 
H 	 -62.8688 	 54.4355 	 132.316 	 
