34

S 	 10.7412 	 -17.0263 	 87.8375 	 
C 	 12.3819 	 -17.4681 	 87.2917 	 
C 	 13.2904 	 -16.4475 	 87.5827 	 
C 	 12.6926 	 -15.3641 	 88.2915 	 
C 	 11.3641 	 -15.5793 	 88.5805 	 
H 	 13.2629 	 -14.5096 	 88.6719 	 
C 	 14.6923 	 -16.5218 	 87.1223 	 
H 	 14.93 	 -15.5748 	 86.5572 	 
H 	 14.7902 	 -17.2789 	 86.3153 	 
C 	 15.7381 	 -16.813 	 88.2184 	 
H 	 15.7335 	 -15.9966 	 88.9857 	 
H 	 15.557 	 -17.7791 	 88.706 	 
C 	 17.1077 	 -16.9845 	 87.7069 	 
H 	 17.133 	 -17.699 	 86.8252 	 
H 	 17.5454 	 -16.1062 	 87.349 	 
H 	 17.7912 	 -17.2724 	 88.5229 	 
S 	 9.43587 	 -15.7583 	 90.495 	 
C 	 8.83517 	 -14.2634 	 91.2325 	 
C 	 9.13536 	 -13.1522 	 90.3795 	 
C 	 10.0752 	 -13.4788 	 89.3186 	 
C 	 10.3889 	 -14.8132 	 89.3345 	 
H 	 8.81468 	 -12.1233 	 90.6943 	 
C 	 10.6339 	 -12.462 	 88.3909 	 
H 	 9.69906 	 -11.911 	 88.1451 	 
H 	 10.8215 	 -12.9135 	 87.4795 	 
C 	 11.7471 	 -11.4965 	 88.853 	 
H 	 12.5426 	 -12.155 	 89.1797 	 
H 	 11.2637 	 -11.018 	 89.6958 	 
C 	 12.2756 	 -10.4245 	 87.8209 	 
H 	 12.9556 	 -10.8997 	 87.0942 	 
H 	 12.7883 	 -9.56383 	 88.2557 	 
H 	 11.469 	 -10.0042 	 87.0878 	 
H 	 12.6696 	 -18.4233 	 86.945 	 
H 	 8.09983 	 -14.1839 	 92.0005 	 
