34

S 	 -47.2357 	 63.2577 	 130.868 	 
C 	 -45.5916 	 63.6714 	 130.294 	 
C 	 -45.3446 	 63.1469 	 129.046 	 
C 	 -46.4676 	 62.3506 	 128.651 	 
C 	 -47.5537 	 62.28 	 129.511 	 
H 	 -46.5115 	 61.8462 	 127.628 	 
C 	 -44.1466 	 63.29 	 128.093 	 
H 	 -43.4543 	 62.5038 	 128.312 	 
H 	 -43.6811 	 64.3044 	 128.266 	 
C 	 -44.4241 	 63.3451 	 126.596 	 
H 	 -44.8902 	 62.4583 	 126.245 	 
H 	 -45.1937 	 64.1549 	 126.383 	 
C 	 -43.1205 	 63.5906 	 125.855 	 
H 	 -43.4208 	 63.9342 	 124.884 	 
H 	 -42.5584 	 64.4204 	 126.22 	 
H 	 -42.5849 	 62.6114 	 125.903 	 
S 	 -50.1405 	 62.719 	 128.669 	 
C 	 -51.1411 	 61.2735 	 128.338 	 
C 	 -50.5351 	 60.0835 	 128.765 	 
C 	 -49.1821 	 60.3521 	 129.243 	 
C 	 -48.8549 	 61.6687 	 129.263 	 
H 	 -50.9634 	 59.1351 	 128.602 	 
C 	 -48.3119 	 59.2338 	 129.787 	 
H 	 -49.0675 	 58.5282 	 130.227 	 
H 	 -47.6641 	 59.3994 	 130.645 	 
C 	 -47.4747 	 58.577 	 128.668 	 
H 	 -46.7343 	 59.1559 	 128.172 	 
H 	 -48.1472 	 58.2767 	 127.874 	 
C 	 -46.7681 	 57.2581 	 129.135 	 
H 	 -46.2854 	 56.7908 	 128.3 	 
H 	 -47.4602 	 56.5414 	 129.52 	 
H 	 -45.9845 	 57.4232 	 129.852 	 
H 	 -44.8888 	 64.3371 	 130.783 	 
H 	 -52.1002 	 61.3705 	 127.852 	 
