34

S 	 -23.2224 	 46.6105 	 64.7381 	 
C 	 -22.0097 	 47.7374 	 65.2438 	 
C 	 -21.2545 	 48.2617 	 64.2594 	 
C 	 -21.4501 	 47.4437 	 63.1295 	 
C 	 -22.6032 	 46.6933 	 63.1156 	 
H 	 -20.9115 	 47.647 	 62.277 	 
C 	 -20.2047 	 49.3084 	 64.414 	 
H 	 -19.374 	 49.0101 	 63.8313 	 
H 	 -19.9693 	 49.3561 	 65.5385 	 
C 	 -20.6454 	 50.658 	 63.9168 	 
H 	 -19.8593 	 51.3668 	 64.078 	 
H 	 -20.8759 	 50.5776 	 62.8752 	 
C 	 -21.8155 	 51.2641 	 64.7055 	 
H 	 -22.1527 	 52.2273 	 64.2456 	 
H 	 -22.5667 	 50.4872 	 64.7117 	 
H 	 -21.5237 	 51.541 	 65.6777 	 
S 	 -22.2295 	 45.6247 	 60.5804 	 
C 	 -23.6345 	 45.1715 	 59.6584 	 
C 	 -24.7652 	 45.3638 	 60.3841 	 
C 	 -24.5415 	 45.8063 	 61.7339 	 
C 	 -23.2127 	 46.0764 	 61.9581 	 
H 	 -25.7387 	 45.2063 	 59.9516 	 
C 	 -25.6573 	 46.1419 	 62.6805 	 
H 	 -26.4911 	 46.4958 	 62.1136 	 
H 	 -25.4162 	 46.944 	 63.3164 	 
C 	 -26.2075 	 44.9909 	 63.4802 	 
H 	 -26.8387 	 45.2853 	 64.3429 	 
H 	 -25.3817 	 44.5342 	 64.0324 	 
C 	 -26.9836 	 44.0116 	 62.6468 	 
H 	 -26.3803 	 43.5388 	 61.9205 	 
H 	 -27.692 	 44.6297 	 62.1932 	 
H 	 -27.5472 	 43.3023 	 63.335 	 
H 	 -21.9986 	 48.1231 	 66.207 	 
H 	 -23.6214 	 44.7268 	 58.6174 	 
