34

S 	 -105.438 	 46.9446 	 121.688 	 
C 	 -105.482 	 47.9518 	 123.13 	 
C 	 -104.574 	 47.522 	 124.082 	 
C 	 -103.749 	 46.4636 	 123.619 	 
C 	 -104.049 	 46.1445 	 122.341 	 
H 	 -102.956 	 45.9643 	 124.141 	 
C 	 -104.575 	 47.9581 	 125.573 	 
H 	 -105.052 	 47.1337 	 126.128 	 
H 	 -105.258 	 48.7542 	 125.612 	 
C 	 -103.113 	 48.3542 	 126.081 	 
H 	 -103.294 	 48.5995 	 127.156 	 
H 	 -102.482 	 47.4502 	 125.974 	 
C 	 -102.536 	 49.59 	 125.393 	 
H 	 -103.19 	 50.4823 	 125.472 	 
H 	 -101.55 	 49.8453 	 125.73 	 
H 	 -102.314 	 49.2787 	 124.335 	 
S 	 -104.605 	 43.7129 	 121.348 	 
C 	 -103.372 	 42.8662 	 120.416 	 
C 	 -102.141 	 43.3874 	 120.624 	 
C 	 -102.178 	 44.6551 	 121.281 	 
C 	 -103.468 	 45.0242 	 121.631 	 
H 	 -101.281 	 42.9662 	 120.265 	 
C 	 -100.949 	 45.5014 	 121.464 	 
H 	 -101.262 	 46.3594 	 122.015 	 
H 	 -100.694 	 45.7193 	 120.445 	 
C 	 -99.6951 	 44.9017 	 122.039 	 
H 	 -99.3174 	 44.1223 	 121.456 	 
H 	 -99.7736 	 44.4854 	 122.994 	 
C 	 -98.6284 	 45.9859 	 122.12 	 
H 	 -97.6822 	 45.6952 	 122.539 	 
H 	 -98.8459 	 46.8738 	 122.587 	 
H 	 -98.4624 	 46.2344 	 121.066 	 
H 	 -106.226 	 48.6794 	 123.32 	 
H 	 -103.468 	 41.908 	 119.988 	 
