34

S 	 -36.1231 	 32.4138 	 83.0254 	 
C 	 -35.3087 	 32.8126 	 81.5716 	 
C 	 -36.1674 	 33.0965 	 80.4823 	 
C 	 -37.5208 	 32.8534 	 80.8783 	 
C 	 -37.6685 	 32.3268 	 82.1455 	 
H 	 -38.3996 	 33.0089 	 80.2157 	 
C 	 -35.7096 	 33.6043 	 79.2222 	 
H 	 -35.5843 	 32.716 	 78.5869 	 
H 	 -34.7315 	 34.0558 	 79.3996 	 
C 	 -36.6348 	 34.5222 	 78.5036 	 
H 	 -37.5405 	 33.9374 	 78.1301 	 
H 	 -37.0807 	 35.3257 	 79.061 	 
C 	 -35.8214 	 35.1319 	 77.3283 	 
H 	 -35.7768 	 34.4246 	 76.5347 	 
H 	 -36.3969 	 35.9328 	 76.8823 	 
H 	 -34.8079 	 35.3701 	 77.6468 	 
S 	 -39.3144 	 32.7114 	 84.3057 	 
C 	 -40.9267 	 31.9491 	 84.3374 	 
C 	 -41.1487 	 31.2489 	 83.1254 	 
C 	 -40.0788 	 31.2968 	 82.2098 	 
C 	 -38.972 	 31.9393 	 82.7309 	 
H 	 -42.1265 	 30.6463 	 83.0846 	 
C 	 -40.1982 	 30.5244 	 80.9295 	 
H 	 -40.7111 	 29.5547 	 81.1338 	 
H 	 -39.1104 	 30.2431 	 80.7683 	 
C 	 -40.9436 	 31.3705 	 79.9225 	 
H 	 -40.3991 	 32.4042 	 79.7763 	 
H 	 -41.8641 	 31.6706 	 80.4261 	 
C 	 -41.1766 	 30.5666 	 78.6649 	 
H 	 -41.6958 	 31.1498 	 77.8687 	 
H 	 -41.6054 	 29.5671 	 78.8556 	 
H 	 -40.2598 	 30.1547 	 78.2593 	 
H 	 -34.2614 	 33.1395 	 81.604 	 
H 	 -41.6643 	 31.9861 	 85.1336 	 
