34

S 	 -4.97943 	 73.9728 	 57.5592 	 
C 	 -4.46913 	 72.3605 	 57.6073 	 
C 	 -4.00103 	 71.8446 	 56.4029 	 
C 	 -4.11811 	 72.8319 	 55.3711 	 
C 	 -4.64348 	 74.0538 	 55.8572 	 
H 	 -3.82826 	 72.723 	 54.3315 	 
C 	 -3.3242 	 70.4871 	 56.198 	 
H 	 -3.92078 	 69.8647 	 55.4379 	 
H 	 -3.382 	 69.9565 	 57.1194 	 
C 	 -1.88859 	 70.6112 	 55.8326 	 
H 	 -1.76112 	 71.2471 	 54.9423 	 
H 	 -1.27212 	 71.1444 	 56.5802 	 
C 	 -1.34176 	 69.2691 	 55.4666 	 
H 	 -0.371098 	 69.4022 	 55.0343 	 
H 	 -1.21774 	 68.611 	 56.3577 	 
H 	 -1.90407 	 68.7939 	 54.596 	 
S 	 -6.6355 	 75.5616 	 54.5465 	 
C 	 -6.19734 	 76.8227 	 53.4377 	 
C 	 -4.86907 	 76.9971 	 53.3242 	 
C 	 -4.14715 	 76.0884 	 54.2147 	 
C 	 -4.99924 	 75.2304 	 54.9765 	 
H 	 -4.41667 	 77.7861 	 52.6709 	 
C 	 -2.557 	 76.1682 	 54.1959 	 
H 	 -2.24669 	 76.2751 	 55.287 	 
H 	 -2.28799 	 77.1695 	 53.796 	 
C 	 -1.66674 	 75.1308 	 53.5392 	 
H 	 -1.86402 	 74.1807 	 54.0263 	 
H 	 -0.615401 	 75.4851 	 53.7043 	 
C 	 -1.97232 	 74.9967 	 52.0556 	 
H 	 -1.94455 	 75.9325 	 51.5922 	 
H 	 -2.91797 	 74.4576 	 51.8148 	 
H 	 -1.14165 	 74.3186 	 51.771 	 
H 	 -4.43185 	 71.7832 	 58.4795 	 
H 	 -6.84188 	 77.4211 	 52.8042 	 
