34

S 	 -38.5468 	 62.0905 	 109.064 	 
C 	 -37.5082 	 61.5671 	 110.366 	 
C 	 -36.2362 	 61.2774 	 109.938 	 
C 	 -36.1375 	 61.4111 	 108.496 	 
C 	 -37.3029 	 61.7447 	 107.86 	 
H 	 -35.2541 	 61.2262 	 107.989 	 
C 	 -35.0892 	 60.9784 	 110.821 	 
H 	 -34.5527 	 60.1087 	 110.548 	 
H 	 -35.4511 	 60.7367 	 111.864 	 
C 	 -34.159 	 62.156 	 110.982 	 
H 	 -34.627 	 63.0533 	 111.353 	 
H 	 -33.343 	 61.9656 	 111.639 	 
C 	 -33.4935 	 62.683 	 109.677 	 
H 	 -32.7372 	 63.4264 	 109.79 	 
H 	 -32.9921 	 61.8674 	 109.215 	 
H 	 -34.2475 	 63.1087 	 109.024 	 
S 	 -36.3642 	 61.178 	 105.305 	 
C 	 -36.7576 	 62.1674 	 103.957 	 
C 	 -37.735 	 63.0772 	 104.375 	 
C 	 -38.1273 	 62.9846 	 105.744 	 
C 	 -37.4377 	 61.9605 	 106.422 	 
H 	 -38.0852 	 63.8676 	 103.738 	 
C 	 -39.1816 	 63.9276 	 106.229 	 
H 	 -38.8915 	 64.85 	 105.697 	 
H 	 -38.9375 	 64.3108 	 107.258 	 
C 	 -40.5729 	 63.5513 	 105.925 	 
H 	 -40.6503 	 62.5829 	 106.47 	 
H 	 -40.7757 	 63.5237 	 104.795 	 
C 	 -41.7181 	 64.4124 	 106.51 	 
H 	 -41.8 	 65.4511 	 105.988 	 
H 	 -41.5843 	 64.6012 	 107.626 	 
H 	 -42.647 	 63.8636 	 106.355 	 
H 	 -37.7435 	 61.6297 	 111.439 	 
H 	 -36.1858 	 62.1011 	 103.019 	 
