34

S 	 -67.7758 	 39.0643 	 142.277 	 
C 	 -68.9768 	 37.7583 	 141.887 	 
C 	 -68.4063 	 36.7183 	 141.148 	 
C 	 -67.0083 	 36.9439 	 140.852 	 
C 	 -66.5133 	 38.165 	 141.425 	 
H 	 -66.4199 	 36.3026 	 140.311 	 
C 	 -69.1713 	 35.4485 	 140.655 	 
H 	 -69.1614 	 34.7194 	 141.545 	 
H 	 -68.717 	 34.8954 	 139.782 	 
C 	 -70.6075 	 35.6038 	 140.129 	 
H 	 -71.0989 	 36.2138 	 140.885 	 
H 	 -70.567 	 36.2066 	 139.162 	 
C 	 -71.3191 	 34.255 	 139.908 	 
H 	 -70.8519 	 33.6187 	 139.259 	 
H 	 -71.4013 	 33.7122 	 140.823 	 
H 	 -72.3855 	 34.2563 	 139.522 	 
S 	 -64.4996 	 39.1244 	 143.089 	 
C 	 -62.8739 	 39.453 	 142.425 	 
C 	 -62.8773 	 39.2891 	 141.103 	 
C 	 -64.1583 	 38.9074 	 140.532 	 
C 	 -65.1279 	 38.5789 	 141.49 	 
H 	 -62.0233 	 39.5151 	 140.448 	 
C 	 -64.4457 	 38.8359 	 139.004 	 
H 	 -65.5218 	 39.0156 	 138.982 	 
H 	 -64.118 	 37.8191 	 138.784 	 
C 	 -63.8556 	 39.9405 	 138.041 	 
H 	 -64.2396 	 39.8933 	 137.022 	 
H 	 -62.7686 	 39.8697 	 137.939 	 
C 	 -64.2927 	 41.351 	 138.476 	 
H 	 -63.7196 	 42.0869 	 138.037 	 
H 	 -64.4516 	 41.5342 	 139.538 	 
H 	 -65.2337 	 41.5204 	 138.052 	 
H 	 -69.964 	 37.6341 	 142.315 	 
H 	 -61.9664 	 39.7085 	 143.047 	 
