34

S 	 38.4341 	 26.9694 	 86.6896 	 
C 	 37.6499 	 28.3147 	 87.4276 	 
C 	 37.3907 	 29.1977 	 86.3811 	 
C 	 37.7582 	 28.7637 	 85.0705 	 
C 	 38.3409 	 27.5412 	 85.1363 	 
H 	 37.5989 	 29.1293 	 84.0762 	 
C 	 36.5644 	 30.4133 	 86.4694 	 
H 	 36.2318 	 30.4993 	 87.517 	 
H 	 35.6408 	 30.3236 	 85.8982 	 
C 	 37.3211 	 31.7237 	 86.053 	 
H 	 38.2297 	 31.7469 	 86.5413 	 
H 	 37.626 	 31.7236 	 84.9773 	 
C 	 36.6388 	 33.0828 	 86.4052 	 
H 	 37.5783 	 33.6705 	 86.7153 	 
H 	 36.0482 	 33.4699 	 85.5952 	 
H 	 35.9724 	 32.9925 	 87.3104 	 
S 	 37.5022 	 26.3332 	 82.8576 	 
C 	 38.6907 	 25.4824 	 81.9019 	 
C 	 40.0057 	 25.6821 	 82.37 	 
C 	 40.0062 	 26.4884 	 83.5495 	 
C 	 38.7251 	 26.8335 	 83.9847 	 
H 	 40.8502 	 25.3569 	 81.7188 	 
C 	 41.2761 	 27.0869 	 84.1946 	 
H 	 41.1038 	 28.022 	 84.7545 	 
H 	 41.9971 	 27.3053 	 83.4194 	 
C 	 41.9552 	 26.0726 	 85.1234 	 
H 	 42.144 	 25.1778 	 84.5619 	 
H 	 41.4284 	 25.9419 	 86.0853 	 
C 	 43.3136 	 26.4404 	 85.6173 	 
H 	 43.8208 	 25.6365 	 86.1159 	 
H 	 43.3118 	 27.2497 	 86.2711 	 
H 	 43.9496 	 26.6565 	 84.7416 	 
H 	 37.2967 	 28.4482 	 88.4807 	 
H 	 38.5489 	 25.1417 	 80.8605 	 
