34

S 	 1.51539 	 -17.697 	 84.4346 	 
C 	 -0.146842 	 -18.2441 	 84.5012 	 
C 	 -0.707787 	 -17.9242 	 85.7405 	 
C 	 0.221978 	 -17.3555 	 86.6155 	 
C 	 1.46083 	 -17.1597 	 86.0929 	 
H 	 -0.024681 	 -17.0105 	 87.618 	 
C 	 -2.19017 	 -17.9962 	 86.1082 	 
H 	 -2.76122 	 -17.1577 	 85.6661 	 
H 	 -2.20825 	 -17.8405 	 87.1648 	 
C 	 -2.83325 	 -19.3712 	 85.8561 	 
H 	 -2.74171 	 -19.5682 	 84.7932 	 
H 	 -2.21573 	 -20.069 	 86.4281 	 
C 	 -4.2084 	 -19.5987 	 86.373 	 
H 	 -4.22891 	 -19.8432 	 87.4734 	 
H 	 -4.80342 	 -18.7105 	 86.1324 	 
H 	 -4.55968 	 -20.5461 	 85.8298 	 
S 	 3.80576 	 -15.7245 	 85.8243 	 
C 	 5.08388 	 -15.6877 	 87.0592 	 
C 	 4.61017 	 -16.3581 	 88.1395 	 
C 	 3.21836 	 -16.8163 	 88.0315 	 
C 	 2.66214 	 -16.6686 	 86.7974 	 
H 	 5.28062 	 -16.44 	 88.9725 	 
C 	 2.64966 	 -17.5408 	 89.1683 	 
H 	 3.49026 	 -17.9671 	 89.664 	 
H 	 2.17497 	 -18.4137 	 88.7367 	 
C 	 1.72015 	 -16.649 	 90.0484 	 
H 	 0.848571 	 -16.3319 	 89.6489 	 
H 	 2.25762 	 -15.7082 	 90.2766 	 
C 	 1.34339 	 -17.4391 	 91.2929 	 
H 	 0.657569 	 -18.2118 	 91.0564 	 
H 	 0.854178 	 -16.7785 	 92.1174 	 
H 	 2.28951 	 -17.7988 	 91.761 	 
H 	 -0.721851 	 -18.6086 	 83.6738 	 
H 	 6.06941 	 -15.2691 	 86.986 	 
