34

S 	 -3.65061 	 -11.1683 	 86.2501 	 
C 	 -2.95102 	 -12.577 	 87.0356 	 
C 	 -2.56171 	 -13.5451 	 86.1202 	 
C 	 -2.87603 	 -13.1974 	 84.7852 	 
C 	 -3.56695 	 -11.9933 	 84.644 	 
H 	 -2.76904 	 -13.7769 	 83.8415 	 
C 	 -1.83665 	 -14.8546 	 86.3835 	 
H 	 -1.3181 	 -14.9064 	 87.3051 	 
H 	 -1.05568 	 -15.0206 	 85.6653 	 
C 	 -2.75342 	 -16.1054 	 86.3305 	 
H 	 -3.58903 	 -15.8685 	 86.9508 	 
H 	 -3.16338 	 -16.297 	 85.3555 	 
C 	 -2.01295 	 -17.3514 	 86.714 	 
H 	 -2.64088 	 -18.1648 	 87.0021 	 
H 	 -1.45907 	 -17.7517 	 85.8866 	 
H 	 -1.47882 	 -17.1787 	 87.587 	 
S 	 -2.98378 	 -9.86439 	 83.077 	 
C 	 -3.69513 	 -9.70584 	 81.4949 	 
C 	 -4.60951 	 -10.6855 	 81.2821 	 
C 	 -4.67312 	 -11.6986 	 82.31 	 
C 	 -3.90918 	 -11.2998 	 83.3853 	 
H 	 -5.03291 	 -10.8634 	 80.2912 	 
C 	 -5.60233 	 -12.9071 	 82.2925 	 
H 	 -6.65352 	 -12.6997 	 82.1207 	 
H 	 -5.56378 	 -13.3667 	 83.2613 	 
C 	 -5.0325 	 -14.0133 	 81.3262 	 
H 	 -3.98156 	 -14.1809 	 81.4008 	 
H 	 -5.3509 	 -13.6818 	 80.3151 	 
C 	 -5.56297 	 -15.407 	 81.6119 	 
H 	 -5.2031 	 -15.5583 	 82.6075 	 
H 	 -5.03027 	 -16.2536 	 81.0774 	 
H 	 -6.60645 	 -15.5029 	 81.6248 	 
H 	 -2.65664 	 -12.6889 	 88.0465 	 
H 	 -3.55117 	 -8.91754 	 80.8243 	 
