34

S 	 -45.5083 	 13.395 	 79.1689 	 
C 	 -46.0448 	 11.6887 	 79.272 	 
C 	 -44.9867 	 10.8871 	 79.5837 	 
C 	 -43.8647 	 11.6858 	 80.0086 	 
C 	 -43.968 	 13.0383 	 79.6702 	 
H 	 -42.8969 	 11.3871 	 80.4458 	 
C 	 -44.9849 	 9.41108 	 79.6838 	 
H 	 -44.0611 	 9.07712 	 79.221 	 
H 	 -45.7308 	 8.96406 	 78.9241 	 
C 	 -45.1365 	 8.79595 	 81.0817 	 
H 	 -44.8652 	 7.80564 	 80.9464 	 
H 	 -44.534 	 9.25026 	 81.7941 	 
C 	 -46.5462 	 8.90552 	 81.5778 	 
H 	 -46.7542 	 10.0217 	 81.5656 	 
H 	 -47.3742 	 8.435 	 80.9867 	 
H 	 -46.5868 	 8.65677 	 82.582 	 
S 	 -43.6979 	 15.6173 	 80.5981 	 
C 	 -42.119 	 16.4438 	 80.4123 	 
C 	 -41.0983 	 15.5623 	 80.0462 	 
C 	 -41.6204 	 14.2373 	 79.8184 	 
C 	 -43.0344 	 14.1283 	 79.9947 	 
H 	 -40.1046 	 15.9121 	 79.9047 	 
C 	 -40.6972 	 13.1624 	 79.299 	 
H 	 -40.6235 	 12.3264 	 80.0099 	 
H 	 -39.7133 	 13.6238 	 79.3752 	 
C 	 -40.9214 	 12.8447 	 77.8678 	 
H 	 -41.9367 	 12.4499 	 77.6541 	 
H 	 -40.2199 	 12.0721 	 77.4877 	 
C 	 -40.6143 	 14.0772 	 76.9426 	 
H 	 -39.5336 	 14.2317 	 76.7088 	 
H 	 -41.0482 	 15.0555 	 77.2785 	 
H 	 -41.1215 	 13.8947 	 75.9984 	 
H 	 -46.9615 	 11.2865 	 78.9901 	 
H 	 -42.0216 	 17.5156 	 80.4646 	 
