34

S 	 -8.33853 	 61.9405 	 54.1909 	 
C 	 -8.27372 	 61.9737 	 55.9088 	 
C 	 -8.43481 	 63.2866 	 56.4124 	 
C 	 -8.72271 	 64.2871 	 55.3644 	 
C 	 -8.64287 	 63.7221 	 54.1103 	 
H 	 -8.79429 	 65.3667 	 55.4608 	 
C 	 -8.31014 	 63.571 	 57.8632 	 
H 	 -8.46825 	 62.6199 	 58.2934 	 
H 	 -9.15872 	 64.0996 	 58.1433 	 
C 	 -6.98486 	 64.1542 	 58.3307 	 
H 	 -6.8528 	 65.0521 	 57.7257 	 
H 	 -7.17321 	 64.5003 	 59.3164 	 
C 	 -5.77838 	 63.1212 	 58.3404 	 
H 	 -5.46806 	 62.7416 	 57.3253 	 
H 	 -4.84771 	 63.487 	 58.7826 	 
H 	 -6.11029 	 62.2172 	 58.8734 	 
S 	 -10.3561 	 64.3722 	 52.1439 	 
C 	 -9.84159 	 65.4556 	 50.8845 	 
C 	 -8.62586 	 65.9359 	 51.1383 	 
C 	 -7.98781 	 65.4034 	 52.233 	 
C 	 -8.73767 	 64.3702 	 52.8205 	 
H 	 -8.29956 	 66.7689 	 50.4011 	 
C 	 -6.71139 	 66.0782 	 52.7621 	 
H 	 -6.73017 	 66.2011 	 53.9025 	 
H 	 -6.76855 	 67.0925 	 52.3385 	 
C 	 -5.37886 	 65.4118 	 52.4647 	 
H 	 -4.59042 	 65.9876 	 53.0417 	 
H 	 -5.24945 	 65.4532 	 51.4233 	 
C 	 -5.12816 	 64.0395 	 52.9301 	 
H 	 -5.29502 	 64.0538 	 54.0138 	 
H 	 -4.12168 	 63.8307 	 52.7748 	 
H 	 -5.65953 	 63.1879 	 52.5235 	 
H 	 -7.88308 	 61.1955 	 56.5812 	 
H 	 -10.5025 	 65.7574 	 50.0702 	 
