34

S 	 -33.2541 	 63.7813 	 111.577 	 
C 	 -33.4208 	 62.2107 	 112.35 	 
C 	 -34.3121 	 61.2973 	 111.689 	 
C 	 -35.0597 	 62.0551 	 110.712 	 
C 	 -34.5715 	 63.3435 	 110.608 	 
H 	 -35.8659 	 61.5912 	 110.048 	 
C 	 -34.6616 	 59.8679 	 112.121 	 
H 	 -35.3442 	 59.4579 	 111.384 	 
H 	 -35.186 	 59.9192 	 113.077 	 
C 	 -33.5741 	 58.9514 	 112.576 	 
H 	 -32.7879 	 59.5404 	 113.116 	 
H 	 -34.055 	 58.194 	 113.162 	 
C 	 -32.8452 	 58.4013 	 111.399 	 
H 	 -31.9648 	 57.7061 	 111.69 	 
H 	 -33.5727 	 57.8375 	 110.717 	 
H 	 -32.507 	 59.2667 	 110.778 	 
S 	 -34.4841 	 64.2147 	 107.973 	 
C 	 -35.6425 	 65.4077 	 107.457 	 
C 	 -36.523 	 65.6901 	 108.458 	 
C 	 -36.2653 	 65.0024 	 109.689 	 
C 	 -35.0926 	 64.2716 	 109.632 	 
H 	 -37.44 	 66.3112 	 108.189 	 
C 	 -37.2442 	 64.9951 	 110.873 	 
H 	 -36.5911 	 65.0165 	 111.715 	 
H 	 -37.6185 	 64.0204 	 111.113 	 
C 	 -38.3726 	 66.0805 	 110.984 	 
H 	 -38.0107 	 67.0196 	 110.559 	 
H 	 -38.6881 	 66.1834 	 111.994 	 
C 	 -39.6734 	 65.6379 	 110.154 	 
H 	 -39.9895 	 64.6238 	 110.396 	 
H 	 -39.4815 	 65.7721 	 109.034 	 
H 	 -40.5884 	 66.1396 	 110.451 	 
H 	 -32.8566 	 62.0034 	 113.215 	 
H 	 -35.7959 	 65.6292 	 106.421 	 
