34

S 	 -69.3206 	 37.93 	 118.214 	 
C 	 -71.0092 	 38.4519 	 118.43 	 
C 	 -71.8127 	 38.2604 	 117.319 	 
C 	 -71.031 	 37.7143 	 116.228 	 
C 	 -69.7017 	 37.6439 	 116.534 	 
H 	 -71.2494 	 37.3671 	 115.2 	 
C 	 -73.2819 	 38.5558 	 117.14 	 
H 	 -73.4907 	 39.1581 	 118.023 	 
H 	 -73.8459 	 37.6627 	 117.177 	 
C 	 -73.6484 	 39.3604 	 115.852 	 
H 	 -73.1596 	 40.3 	 115.993 	 
H 	 -73.2082 	 38.8649 	 114.967 	 
C 	 -75.1739 	 39.5466 	 115.702 	 
H 	 -75.3931 	 40.3099 	 116.442 	 
H 	 -75.4714 	 39.9295 	 114.747 	 
H 	 -75.7012 	 38.5844 	 115.917 	 
S 	 -67.8257 	 35.775 	 115.787 	 
C 	 -66.842 	 36.0174 	 114.464 	 
C 	 -67.1388 	 37.2025 	 113.847 	 
C 	 -68.2633 	 37.8411 	 114.434 	 
C 	 -68.6502 	 37.2721 	 115.633 	 
H 	 -66.6981 	 37.4858 	 112.887 	 
C 	 -68.8089 	 39.2011 	 113.932 	 
H 	 -69.814 	 39.3189 	 114.378 	 
H 	 -69.0072 	 39.1133 	 112.813 	 
C 	 -68.0094 	 40.4798 	 114.238 	 
H 	 -67.1664 	 40.5561 	 113.612 	 
H 	 -67.6911 	 40.3178 	 115.269 	 
C 	 -68.8549 	 41.7168 	 114.332 	 
H 	 -68.1556 	 42.4881 	 114.563 	 
H 	 -69.5632 	 41.7341 	 115.121 	 
H 	 -69.3764 	 41.8621 	 113.412 	 
H 	 -71.2856 	 38.6305 	 119.494 	 
H 	 -65.9423 	 35.4166 	 114.214 	 
