34

S 	 -1.54362 	 -8.96243 	 84.5384 	 
C 	 -0.462628 	 -10.0974 	 85.2799 	 
C 	 -1.22104 	 -11.1602 	 85.8239 	 
C 	 -2.63068 	 -10.9758 	 85.6785 	 
C 	 -2.98002 	 -9.7531 	 85.1562 	 
H 	 -3.36709 	 -11.7543 	 85.9097 	 
C 	 -0.738206 	 -12.5596 	 86.1356 	 
H 	 -1.29924 	 -12.921 	 87.0188 	 
H 	 0.26182 	 -12.5017 	 86.4923 	 
C 	 -0.977978 	 -13.6589 	 85.006 	 
H 	 -2.04462 	 -13.9038 	 84.9384 	 
H 	 -0.721383 	 -13.1201 	 84.1147 	 
C 	 -0.105306 	 -14.9609 	 85.0246 	 
H 	 0.947718 	 -14.8101 	 85.1071 	 
H 	 -0.519038 	 -15.4908 	 85.8604 	 
H 	 -0.191659 	 -15.5635 	 84.1033 	 
S 	 -4.46144 	 -8.39917 	 83.4336 	 
C 	 -6.12121 	 -7.98672 	 83.8008 	 
C 	 -6.53862 	 -8.49551 	 85.0415 	 
C 	 -5.54647 	 -9.2839 	 85.6926 	 
C 	 -4.30759 	 -9.27049 	 84.992 	 
H 	 -7.48844 	 -8.26318 	 85.3639 	 
C 	 -5.87486 	 -9.93874 	 87.0509 	 
H 	 -5.59266 	 -9.3206 	 87.838 	 
H 	 -5.16287 	 -10.7383 	 87.2377 	 
C 	 -7.34112 	 -10.4565 	 87.2304 	 
H 	 -7.66481 	 -11.1633 	 86.4699 	 
H 	 -8.01731 	 -9.63452 	 87.2538 	 
C 	 -7.42706 	 -11.1619 	 88.6055 	 
H 	 -6.78089 	 -12.0311 	 88.6597 	 
H 	 -8.44171 	 -11.4579 	 88.8019 	 
H 	 -7.15578 	 -10.4836 	 89.4087 	 
H 	 0.640553 	 -10.114 	 85.1436 	 
H 	 -6.78333 	 -7.60329 	 83.0826 	 
