34

S 	 -44.1422 	 40.7017 	 80.9307 	 
C 	 -43.9001 	 40.3454 	 79.2369 	 
C 	 -45.082 	 40.4165 	 78.533 	 
C 	 -46.1513 	 40.5844 	 79.4802 	 
C 	 -45.8078 	 40.7627 	 80.8228 	 
H 	 -47.2242 	 40.8437 	 79.2541 	 
C 	 -45.1911 	 40.6338 	 77.124 	 
H 	 -44.7434 	 41.6496 	 76.9055 	 
H 	 -46.2771 	 40.7358 	 76.9414 	 
C 	 -44.6309 	 39.4275 	 76.2895 	 
H 	 -43.7241 	 39.7319 	 75.7586 	 
H 	 -44.2899 	 38.6652 	 76.9984 	 
C 	 -45.5823 	 38.5821 	 75.4339 	 
H 	 -46.4432 	 38.2201 	 76.0296 	 
H 	 -46.0383 	 39.2154 	 74.6953 	 
H 	 -45.1674 	 37.7391 	 75.0017 	 
S 	 -46.8994 	 42.1462 	 82.9644 	 
C 	 -48.2759 	 41.6062 	 83.8001 	 
C 	 -48.7441 	 40.4269 	 83.1766 	 
C 	 -47.8844 	 39.9444 	 82.1252 	 
C 	 -46.769 	 40.727 	 81.9569 	 
H 	 -49.6606 	 39.9727 	 83.5186 	 
C 	 -48.1501 	 38.6421 	 81.3714 	 
H 	 -48.0089 	 38.8666 	 80.387 	 
H 	 -49.2392 	 38.4167 	 81.3045 	 
C 	 -47.2375 	 37.4433 	 81.7123 	 
H 	 -46.1748 	 37.6405 	 81.4728 	 
H 	 -47.6273 	 36.6513 	 81.0479 	 
C 	 -47.2897 	 36.992 	 83.1685 	 
H 	 -46.8912 	 37.7206 	 83.8475 	 
H 	 -46.7478 	 36.0285 	 83.2644 	 
H 	 -48.3382 	 36.825 	 83.2685 	 
H 	 -42.8752 	 40.2913 	 78.8396 	 
H 	 -48.7574 	 42.1813 	 84.5418 	 
