34

S 	 -30.6109 	 38.7557 	 98.132 	 
C 	 -31.6887 	 38.1678 	 96.9357 	 
C 	 -31.5239 	 38.8946 	 95.7523 	 
C 	 -30.6866 	 40.0166 	 95.9548 	 
C 	 -30.1797 	 40.1478 	 97.1643 	 
H 	 -30.4109 	 40.703 	 95.1356 	 
C 	 -32.4012 	 38.7831 	 94.5394 	 
H 	 -32.1214 	 39.5467 	 93.7727 	 
H 	 -33.3986 	 39.1049 	 94.9623 	 
C 	 -32.4563 	 37.4745 	 93.8264 	 
H 	 -31.4848 	 37.2137 	 93.4498 	 
H 	 -32.8322 	 36.7585 	 94.6452 	 
C 	 -33.4263 	 37.4899 	 92.6302 	 
H 	 -33.1322 	 37.9672 	 91.7119 	 
H 	 -33.569 	 36.3963 	 92.5666 	 
H 	 -34.4047 	 37.919 	 92.8755 	 
S 	 -27.5654 	 40.5978 	 97.7934 	 
C 	 -27.0661 	 42.2167 	 98.2599 	 
C 	 -28.1686 	 43.114 	 98.1472 	 
C 	 -29.3535 	 42.4887 	 97.7226 	 
C 	 -29.166 	 41.1253 	 97.5989 	 
H 	 -27.9447 	 44.1119 	 98.3668 	 
C 	 -30.6725 	 43.2597 	 97.5881 	 
H 	 -30.4293 	 44.2308 	 97.9903 	 
H 	 -31.4541 	 42.8958 	 98.2999 	 
C 	 -31.1555 	 43.6026 	 96.142 	 
H 	 -31.9657 	 44.2665 	 96.3923 	 
H 	 -31.5424 	 42.6177 	 95.7799 	 
C 	 -30.1328 	 44.4011 	 95.3422 	 
H 	 -30.6009 	 44.5915 	 94.4169 	 
H 	 -29.1703 	 43.8138 	 95.0483 	 
H 	 -29.883 	 45.3982 	 95.6843 	 
H 	 -32.6294 	 37.6067 	 97.1317 	 
H 	 -26.041 	 42.5438 	 98.3687 	 
