34

S 	 33.9121 	 27.6165 	 54.5295 	 
C 	 35.2112 	 28.6825 	 54.1745 	 
C 	 35.9023 	 28.3016 	 53.0738 	 
C 	 35.3579 	 27.2039 	 52.4209 	 
C 	 34.2368 	 26.68 	 53.0613 	 
H 	 35.6978 	 26.8703 	 51.4834 	 
C 	 37.1356 	 29.0493 	 52.6122 	 
H 	 37.5636 	 29.5616 	 53.4329 	 
H 	 36.6538 	 29.8412 	 52.0021 	 
C 	 38.2598 	 28.3269 	 51.884 	 
H 	 38.0009 	 27.9415 	 50.8761 	 
H 	 39.0962 	 29.0231 	 51.8535 	 
C 	 38.7545 	 27.1067 	 52.7116 	 
H 	 39.7805 	 26.7643 	 52.3967 	 
H 	 38.8271 	 27.3436 	 53.7994 	 
H 	 38.1427 	 26.2779 	 52.5455 	 
S 	 33.2794 	 24.3578 	 54.0553 	 
C 	 32.7538 	 23.1488 	 52.9847 	 
C 	 32.7231 	 23.5393 	 51.6919 	 
C 	 33.1981 	 24.8967 	 51.5212 	 
C 	 33.5325 	 25.4559 	 52.719 	 
H 	 32.4106 	 22.8469 	 50.9155 	 
C 	 33.3042 	 25.6157 	 50.139 	 
H 	 34.237 	 25.1891 	 49.7169 	 
H 	 33.5326 	 26.6881 	 50.2721 	 
C 	 31.9836 	 25.5031 	 49.2363 	 
H 	 31.0678 	 25.8611 	 49.5919 	 
H 	 31.8665 	 24.3634 	 49.0476 	 
C 	 32.1456 	 26.3062 	 47.9813 	 
H 	 31.2964 	 26.1731 	 47.3961 	 
H 	 33.0279 	 26.0111 	 47.3834 	 
H 	 32.3305 	 27.366 	 48.12 	 
H 	 35.5227 	 29.4366 	 54.9054 	 
H 	 32.3081 	 22.2502 	 53.3808 	 
