34

S 	 3.85843 	 -25.761 	 60.5808 	 
C 	 2.57436 	 -26.6026 	 61.3272 	 
C 	 2.93259 	 -27.7334 	 62.0712 	 
C 	 4.33678 	 -27.8237 	 62.0724 	 
C 	 5.03088 	 -26.7631 	 61.487 	 
H 	 4.99582 	 -28.6242 	 62.4068 	 
C 	 1.97785 	 -28.7725 	 62.578 	 
H 	 1.01154 	 -28.3571 	 62.881 	 
H 	 2.38082 	 -29.2247 	 63.4046 	 
C 	 1.81727 	 -29.8768 	 61.4816 	 
H 	 2.70832 	 -30.4169 	 61.2668 	 
H 	 1.23958 	 -30.6691 	 62.009 	 
C 	 1.07548 	 -29.6399 	 60.1152 	 
H 	 0.793556 	 -30.5934 	 59.6845 	 
H 	 0.0847504 	 -29.1994 	 60.3759 	 
H 	 1.65767 	 -29.0723 	 59.4293 	 
S 	 6.90185 	 -26.8354 	 59.4788 	 
C 	 8.57068 	 -26.5212 	 59.8778 	 
C 	 8.79449 	 -26.3433 	 61.2725 	 
C 	 7.52192 	 -26.3843 	 61.9817 	 
C 	 6.43423 	 -26.703 	 61.1987 	 
H 	 9.76761 	 -26.1492 	 61.6709 	 
C 	 7.51168 	 -26.1952 	 63.4267 	 
H 	 6.56897 	 -26.3014 	 63.8423 	 
H 	 7.91338 	 -25.1858 	 63.5441 	 
C 	 8.31118 	 -27.2735 	 64.2141 	 
H 	 8.58539 	 -26.7041 	 65.0665 	 
H 	 9.24105 	 -27.4454 	 63.7633 	 
C 	 7.59507 	 -28.6351 	 64.502 	 
H 	 8.21662 	 -29.3426 	 65.0811 	 
H 	 7.48507 	 -29.1628 	 63.5708 	 
H 	 6.60418 	 -28.6465 	 64.9065 	 
H 	 1.55525 	 -26.3645 	 61.1703 	 
H 	 9.39793 	 -26.5909 	 59.2232 	 
