34

S 	 17.7714 	 32.1988 	 63.0962 	 
C 	 18.9727 	 32.4548 	 61.8104 	 
C 	 20.2825 	 32.3198 	 62.2553 	 
C 	 20.2447 	 31.7051 	 63.5599 	 
C 	 19.0019 	 31.6233 	 64.1631 	 
H 	 21.1014 	 31.4419 	 64.2161 	 
C 	 21.5234 	 32.7124 	 61.6003 	 
H 	 22.3014 	 33.0118 	 62.3531 	 
H 	 21.3853 	 33.538 	 60.9223 	 
C 	 22.1147 	 31.5592 	 60.6696 	 
H 	 22.6168 	 30.8853 	 61.2931 	 
H 	 21.3079 	 31.0501 	 60.163 	 
C 	 23.1025 	 32.1523 	 59.7195 	 
H 	 22.7647 	 32.903 	 59.0208 	 
H 	 23.9553 	 32.5123 	 60.2006 	 
H 	 23.4258 	 31.3748 	 59.0694 	 
S 	 16.9592 	 30.914 	 65.7711 	 
C 	 17.1851 	 30.617 	 67.4578 	 
C 	 18.5164 	 30.6999 	 67.8077 	 
C 	 19.3557 	 31.159 	 66.7187 	 
C 	 18.6687 	 31.3433 	 65.5636 	 
H 	 18.7703 	 30.5535 	 68.8323 	 
C 	 20.8121 	 31.4312 	 67.0004 	 
H 	 21.3897 	 30.8701 	 66.2418 	 
H 	 21.0681 	 31.0045 	 67.9841 	 
C 	 21.1739 	 32.8992 	 67.1507 	 
H 	 21.0473 	 33.4272 	 66.1665 	 
H 	 22.2643 	 33.0776 	 67.4165 	 
C 	 20.3964 	 33.6527 	 68.2311 	 
H 	 20.7399 	 34.6685 	 68.471 	 
H 	 20.6401 	 33.1354 	 69.1673 	 
H 	 19.2682 	 33.5988 	 67.9164 	 
H 	 18.7396 	 32.9935 	 60.8938 	 
H 	 16.3161 	 30.4427 	 68.1 	 
