34

S 	 -69.7875 	 41.4723 	 120.118 	 
C 	 -71.3831 	 42.0542 	 120.386 	 
C 	 -71.9894 	 41.3296 	 121.368 	 
C 	 -71.0792 	 40.5182 	 122.033 	 
C 	 -69.7502 	 40.5567 	 121.553 	 
H 	 -71.3629 	 39.8292 	 122.899 	 
C 	 -73.4611 	 41.5139 	 121.833 	 
H 	 -73.5431 	 42.5977 	 122.112 	 
H 	 -73.6623 	 41.0681 	 122.851 	 
C 	 -74.5793 	 41.0495 	 120.852 	 
H 	 -74.3393 	 41.488 	 119.89 	 
H 	 -74.7109 	 39.9339 	 120.754 	 
C 	 -75.9067 	 41.6165 	 121.325 	 
H 	 -76.7356 	 41.05 	 120.854 	 
H 	 -76.0516 	 41.5495 	 122.437 	 
H 	 -75.945 	 42.7055 	 121.128 	 
S 	 -68.0267 	 38.5143 	 120.963 	 
C 	 -66.9135 	 38.0299 	 122.213 	 
C 	 -66.9233 	 38.8615 	 123.293 	 
C 	 -67.9165 	 39.8686 	 123.199 	 
C 	 -68.5865 	 39.8156 	 121.962 	 
H 	 -66.2915 	 38.6038 	 124.134 	 
C 	 -68.2402 	 40.8629 	 124.328 	 
H 	 -69.2099 	 41.3762 	 124.107 	 
H 	 -67.4684 	 41.6568 	 124.217 	 
C 	 -68.2466 	 40.3857 	 125.725 	 
H 	 -67.3567 	 39.8111 	 125.94 	 
H 	 -69.0566 	 39.6281 	 125.904 	 
C 	 -68.3121 	 41.4561 	 126.872 	 
H 	 -68.3402 	 41.0139 	 127.87 	 
H 	 -69.2154 	 42.0832 	 126.895 	 
H 	 -67.428 	 42.1534 	 126.847 	 
H 	 -71.8185 	 42.8269 	 119.76 	 
H 	 -66.3439 	 37.1305 	 122.264 	 
