34

S 	 -18.9745 	 54.3274 	 65.3685 	 
C 	 -18.4868 	 52.6875 	 65.8451 	 
C 	 -19.6207 	 52.0381 	 66.3689 	 
C 	 -20.7573 	 52.8688 	 66.4289 	 
C 	 -20.5637 	 54.1692 	 66.0492 	 
H 	 -21.7406 	 52.6131 	 66.6694 	 
C 	 -19.6069 	 50.6545 	 66.939 	 
H 	 -20.2919 	 50.7155 	 67.7022 	 
H 	 -18.6618 	 50.5116 	 67.3959 	 
C 	 -20.1761 	 49.5307 	 66.0576 	 
H 	 -20.1117 	 48.5282 	 66.4112 	 
H 	 -21.2467 	 49.6683 	 66.1193 	 
C 	 -19.6176 	 49.5176 	 64.5935 	 
H 	 -18.5376 	 49.4844 	 64.7208 	 
H 	 -19.9745 	 48.7055 	 63.9246 	 
H 	 -19.8817 	 50.4875 	 64.0642 	 
S 	 -22.2313 	 55.543 	 64.2128 	 
C 	 -23.2977 	 56.6614 	 64.8835 	 
C 	 -23.325 	 56.6699 	 66.2771 	 
C 	 -22.2464 	 55.9084 	 66.8302 	 
C 	 -21.5532 	 55.2247 	 65.8251 	 
H 	 -23.9987 	 57.4824 	 66.7466 	 
C 	 -21.9736 	 55.8549 	 68.346 	 
H 	 -21.2436 	 55.0419 	 68.5211 	 
H 	 -22.8677 	 55.5404 	 68.8504 	 
C 	 -21.3947 	 57.1032 	 69.01 	 
H 	 -21.9584 	 57.9962 	 68.6997 	 
H 	 -20.3633 	 57.286 	 68.7119 	 
C 	 -21.7617 	 57.1512 	 70.5509 	 
H 	 -21.714 	 58.1671 	 70.8407 	 
H 	 -20.8565 	 56.7743 	 70.987 	 
H 	 -22.6909 	 56.641 	 70.9211 	 
H 	 -17.5494 	 52.1873 	 65.5724 	 
H 	 -24.0005 	 57.2775 	 64.4037 	 
