34

S 	 -7.07705 	 -9.54355 	 86.7446 	 
C 	 -6.33628 	 -10.311 	 85.4039 	 
C 	 -5.02625 	 -10.6818 	 85.6366 	 
C 	 -4.63992 	 -10.2331 	 86.9082 	 
C 	 -5.56493 	 -9.53518 	 87.6717 	 
H 	 -3.63906 	 -10.3746 	 87.3353 	 
C 	 -4.01114 	 -11.4778 	 84.7794 	 
H 	 -3.47761 	 -10.7223 	 84.1488 	 
H 	 -4.58417 	 -12.0332 	 84.0453 	 
C 	 -3.07012 	 -12.3097 	 85.6717 	 
H 	 -2.34365 	 -11.5343 	 86.0952 	 
H 	 -3.55414 	 -12.7677 	 86.5777 	 
C 	 -2.17331 	 -13.3681 	 84.9337 	 
H 	 -1.3535 	 -13.7271 	 85.4858 	 
H 	 -2.81718 	 -14.2279 	 84.757 	 
H 	 -1.74174 	 -12.9826 	 83.9384 	 
S 	 -6.55743 	 -9.16534 	 90.22 	 
C 	 -5.79511 	 -8.01454 	 91.3697 	 
C 	 -4.60819 	 -7.59952 	 90.8222 	 
C 	 -4.31731 	 -8.03 	 89.4732 	 
C 	 -5.31902 	 -8.90173 	 88.9775 	 
H 	 -4.01742 	 -7.11082 	 91.5459 	 
C 	 -3.01575 	 -7.7594 	 88.811 	 
H 	 -2.59545 	 -6.86597 	 89.2422 	 
H 	 -3.10959 	 -7.67117 	 87.7222 	 
C 	 -1.95666 	 -8.8508 	 89.1644 	 
H 	 -2.42748 	 -9.82075 	 88.8512 	 
H 	 -1.78566 	 -8.8807 	 90.222 	 
C 	 -0.725708 	 -8.64361 	 88.3038 	 
H 	 -0.482342 	 -7.54498 	 88.2138 	 
H 	 -0.901461 	 -8.98832 	 87.2731 	 
H 	 0.0931193 	 -9.21481 	 88.693 	 
H 	 -6.89209 	 -10.6508 	 84.5299 	 
H 	 -6.08541 	 -7.79617 	 92.3505 	 
