34

S 	 -32.6308 	 70.4492 	 145.992 	 
C 	 -31.1128 	 69.8155 	 145.313 	 
C 	 -30.7784 	 68.748 	 146.06 	 
C 	 -31.6422 	 68.3819 	 147.066 	 
C 	 -32.7591 	 69.1293 	 147.19 	 
H 	 -31.485 	 67.4259 	 147.664 	 
C 	 -29.5046 	 67.8735 	 145.874 	 
H 	 -29.3057 	 67.1358 	 146.642 	 
H 	 -28.7201 	 68.5781 	 145.912 	 
C 	 -29.4289 	 67.14 	 144.488 	 
H 	 -29.651 	 67.8384 	 143.696 	 
H 	 -28.4233 	 66.6515 	 144.304 	 
C 	 -30.4593 	 65.9606 	 144.394 	 
H 	 -30.5466 	 65.5731 	 143.394 	 
H 	 -30.1001 	 65.0474 	 144.947 	 
H 	 -31.4038 	 66.1687 	 144.893 	 
S 	 -35.1911 	 68.0208 	 147.146 	 
C 	 -36.1069 	 68.0047 	 148.664 	 
C 	 -35.3926 	 68.5764 	 149.678 	 
C 	 -34.2318 	 69.2005 	 149.34 	 
C 	 -33.8882 	 68.8667 	 148.024 	 
H 	 -35.6793 	 68.4626 	 150.698 	 
C 	 -33.371 	 69.8919 	 150.315 	 
H 	 -33.7649 	 70.9421 	 150.271 	 
H 	 -32.3502 	 69.8633 	 150.087 	 
C 	 -33.4671 	 69.4998 	 151.808 	 
H 	 -34.4751 	 69.5105 	 152.264 	 
H 	 -32.8646 	 70.2128 	 152.366 	 
C 	 -33.0515 	 68.0351 	 152.049 	 
H 	 -33.3699 	 67.3283 	 151.29 	 
H 	 -33.4922 	 67.757 	 153.016 	 
H 	 -31.9727 	 67.9059 	 152.133 	 
H 	 -30.5542 	 70.2736 	 144.583 	 
H 	 -36.9355 	 67.3559 	 148.844 	 
