34

S 	 -24.3956 	 46.1241 	 60.8515 	 
C 	 -24.5534 	 47.7247 	 61.1713 	 
C 	 -24.4936 	 48.5038 	 59.9967 	 
C 	 -24.1937 	 47.6907 	 58.8538 	 
C 	 -24.2469 	 46.2984 	 59.1501 	 
H 	 -24.1615 	 48.1437 	 57.9005 	 
C 	 -24.6845 	 50.0527 	 59.9934 	 
H 	 -23.7498 	 50.3574 	 60.4479 	 
H 	 -25.5056 	 50.3366 	 60.6166 	 
C 	 -24.8425 	 50.6997 	 58.6029 	 
H 	 -24.9054 	 51.7818 	 58.7795 	 
H 	 -23.9661 	 50.4458 	 58.0046 	 
C 	 -26.1672 	 50.2451 	 57.9735 	 
H 	 -26.1888 	 50.2565 	 56.8807 	 
H 	 -26.5964 	 49.3042 	 58.2914 	 
H 	 -26.9749 	 50.9255 	 58.3332 	 
S 	 -23.2325 	 43.8325 	 58.1468 	 
C 	 -23.8751 	 43.1882 	 56.7185 	 
C 	 -24.748 	 44.0998 	 56.1671 	 
C 	 -25.0217 	 45.2223 	 56.9675 	 
C 	 -24.3488 	 45.2505 	 58.1695 	 
H 	 -25.1904 	 43.8484 	 55.1991 	 
C 	 -26.1346 	 46.2225 	 56.5282 	 
H 	 -26.4107 	 45.958 	 55.5125 	 
H 	 -25.5996 	 47.1836 	 56.4498 	 
C 	 -27.4246 	 46.2909 	 57.4082 	 
H 	 -28.1231 	 47.1155 	 57.1126 	 
H 	 -26.9901 	 46.6359 	 58.3381 	 
C 	 -28.2391 	 44.953 	 57.4754 	 
H 	 -29.1081 	 45.0963 	 58.0379 	 
H 	 -27.6378 	 44.1346 	 58.0534 	 
H 	 -28.5763 	 44.5615 	 56.5248 	 
H 	 -24.6757 	 48.1841 	 62.1747 	 
H 	 -23.6497 	 42.2164 	 56.2699 	 
