34

S 	 0.728514 	 34.7677 	 36.0236 	 
C 	 0.839205 	 33.0943 	 35.3996 	 
C 	 -0.410426 	 32.7902 	 34.8156 	 
C 	 -1.43126 	 33.6779 	 35.3222 	 
C 	 -0.973625 	 34.8402 	 35.9569 	 
H 	 -2.4916 	 33.6284 	 35.0258 	 
C 	 -0.802246 	 31.5472 	 34.0994 	 
H 	 -0.846387 	 30.817 	 34.871 	 
H 	 0.142755 	 31.3194 	 33.556 	 
C 	 -2.07077 	 31.6077 	 33.18 	 
H 	 -2.98985 	 31.6035 	 33.6886 	 
H 	 -1.98864 	 32.4362 	 32.4907 	 
C 	 -2.0901 	 30.2613 	 32.3739 	 
H 	 -2.45651 	 29.4159 	 33.0068 	 
H 	 -2.63599 	 30.2436 	 31.4355 	 
H 	 -1.06051 	 29.8681 	 32.1307 	 
S 	 -2.15211 	 37.2451 	 35.0827 	 
C 	 -3.35383 	 37.9676 	 36.2368 	 
C 	 -3.33484 	 37.4005 	 37.5075 	 
C 	 -2.42784 	 36.2314 	 37.5111 	 
C 	 -1.78701 	 35.9717 	 36.303 	 
H 	 -4.05282 	 37.6645 	 38.3286 	 
C 	 -2.33772 	 35.2814 	 38.73 	 
H 	 -2.20966 	 34.2579 	 38.2583 	 
H 	 -3.17147 	 35.1628 	 39.381 	 
C 	 -0.979444 	 35.339 	 39.538 	 
H 	 -0.863459 	 36.27 	 40.0602 	 
H 	 -0.132287 	 35.2981 	 38.8731 	 
C 	 -0.896147 	 34.2223 	 40.6005 	 
H 	 -0.73324 	 33.3044 	 40.0567 	 
H 	 -1.79371 	 34.2231 	 41.3056 	 
H 	 -0.0165735 	 34.3428 	 41.1771 	 
H 	 1.68023 	 32.398 	 35.2101 	 
H 	 -3.99925 	 38.87 	 36.0901 	 
