34

S 	 -31.862 	 59.347 	 118.952 	 
C 	 -33.5744 	 58.8107 	 118.615 	 
C 	 -34.0066 	 59.4883 	 117.505 	 
C 	 -33.106 	 60.5355 	 117.111 	 
C 	 -31.9486 	 60.6388 	 117.827 	 
H 	 -33.2991 	 61.1916 	 116.312 	 
C 	 -35.3522 	 59.3272 	 116.907 	 
H 	 -35.6991 	 60.4052 	 117.046 	 
H 	 -35.9649 	 58.6793 	 117.469 	 
C 	 -35.4277 	 58.9755 	 115.395 	 
H 	 -36.4276 	 59.0148 	 115.03 	 
H 	 -34.9549 	 59.8188 	 114.877 	 
C 	 -34.6615 	 57.6729 	 115.084 	 
H 	 -34.7521 	 57.3653 	 114.059 	 
H 	 -33.568 	 57.6825 	 115.334 	 
H 	 -34.9885 	 56.8058 	 115.694 	 
S 	 -29.2463 	 60.5722 	 117.466 	 
C 	 -28.2553 	 62.056 	 117.109 	 
C 	 -29.1814 	 63.09 	 117.084 	 
C 	 -30.5829 	 62.7713 	 117.198 	 
C 	 -30.7711 	 61.4223 	 117.606 	 
H 	 -28.8766 	 64.0807 	 116.918 	 
C 	 -31.6535 	 63.8051 	 117.122 	 
H 	 -32.3374 	 63.4373 	 116.338 	 
H 	 -31.214 	 64.6796 	 116.676 	 
C 	 -32.4647 	 64.2188 	 118.404 	 
H 	 -31.9135 	 63.8435 	 119.226 	 
H 	 -33.3793 	 63.5762 	 118.48 	 
C 	 -33.0309 	 65.5907 	 118.437 	 
H 	 -32.1416 	 66.2234 	 118.001 	 
H 	 -33.259 	 65.9938 	 119.434 	 
H 	 -33.9555 	 65.6037 	 117.791 	 
H 	 -33.9794 	 57.9028 	 119.119 	 
H 	 -27.165 	 62.1231 	 116.954 	 
