34

S 	 -98.7808 	 38.0276 	 123.12 	 
C 	 -99.919 	 38.1835 	 124.396 	 
C 	 -99.5904 	 39.1857 	 125.271 	 
C 	 -98.5237 	 40.0258 	 124.743 	 
C 	 -97.9702 	 39.5426 	 123.577 	 
H 	 -98.1345 	 40.9128 	 125.192 	 
C 	 -100.325 	 39.4998 	 126.578 	 
H 	 -101.071 	 38.7301 	 126.763 	 
H 	 -100.738 	 40.4999 	 126.206 	 
C 	 -99.3696 	 39.7718 	 127.799 	 
H 	 -98.575 	 40.4645 	 127.644 	 
H 	 -100.035 	 40.1878 	 128.594 	 
C 	 -98.6946 	 38.5299 	 128.398 	 
H 	 -98.0946 	 38.8799 	 129.324 	 
H 	 -99.5668 	 38.0145 	 128.765 	 
H 	 -98.0797 	 37.8995 	 127.694 	 
S 	 -95.2386 	 39.4009 	 123.033 	 
C 	 -94.5584 	 40.6307 	 122.034 	 
C 	 -95.4204 	 41.6863 	 121.888 	 
C 	 -96.7469 	 41.3928 	 122.32 	 
C 	 -96.8394 	 40.1573 	 122.907 	 
H 	 -94.9824 	 42.5796 	 121.55 	 
C 	 -97.8156 	 42.5006 	 122.194 	 
H 	 -98.7573 	 41.9066 	 122.244 	 
H 	 -97.8231 	 42.8371 	 121.209 	 
C 	 -97.6481 	 43.5119 	 123.298 	 
H 	 -96.6166 	 43.6713 	 123.464 	 
H 	 -97.8999 	 43.1209 	 124.254 	 
C 	 -98.4197 	 44.8528 	 123.036 	 
H 	 -98.0514 	 45.2935 	 122.126 	 
H 	 -98.2927 	 45.5783 	 123.881 	 
H 	 -99.465 	 44.7459 	 122.984 	 
H 	 -100.615 	 37.3934 	 124.634 	 
H 	 -93.5694 	 40.6212 	 121.792 	 
