34

S 	 -94.8473 	 38.7101 	 124.167 	 
C 	 -93.4961 	 37.7047 	 124.29 	 
C 	 -93.0694 	 37.3055 	 123.076 	 
C 	 -93.9681 	 37.7392 	 122.021 	 
C 	 -94.937 	 38.6286 	 122.403 	 
H 	 -93.9238 	 37.3241 	 121.037 	 
C 	 -91.8731 	 36.4494 	 122.796 	 
H 	 -91.8848 	 35.9267 	 121.883 	 
H 	 -91.9421 	 35.6332 	 123.449 	 
C 	 -90.5518 	 37.2011 	 122.834 	 
H 	 -89.8692 	 36.5884 	 122.223 	 
H 	 -90.7821 	 38.1586 	 122.283 	 
C 	 -89.9971 	 37.421 	 124.22 	 
H 	 -90.4668 	 38.2487 	 124.865 	 
H 	 -89.9444 	 36.5295 	 124.79 	 
H 	 -88.999 	 37.706 	 124.14 	 
S 	 -97.6216 	 38.8945 	 122.174 	 
C 	 -98.1819 	 39.807 	 120.87 	 
C 	 -97.3099 	 40.0676 	 119.92 	 
C 	 -95.9943 	 39.6616 	 120.341 	 
C 	 -95.9967 	 39.2481 	 121.657 	 
H 	 -97.4635 	 40.582 	 118.973 	 
C 	 -94.8215 	 39.6969 	 119.316 	 
H 	 -95.3532 	 39.6745 	 118.346 	 
H 	 -94.1711 	 38.912 	 119.3 	 
C 	 -93.9679 	 41.0663 	 119.314 	 
H 	 -94.6566 	 41.8981 	 119.177 	 
H 	 -93.3059 	 41.1003 	 118.476 	 
C 	 -93.1277 	 41.2591 	 120.586 	 
H 	 -92.5451 	 42.2046 	 120.606 	 
H 	 -92.3566 	 40.4531 	 120.855 	 
H 	 -93.7799 	 41.3908 	 121.418 	 
H 	 -92.9128 	 37.5513 	 125.209 	 
H 	 -99.237 	 40.1066 	 120.721 	 
