34

S 	 -33.4805 	 57.6956 	 107.341 	 
C 	 -32.1476 	 58.6689 	 106.832 	 
C 	 -31.17 	 57.8232 	 106.295 	 
C 	 -31.5531 	 56.456 	 106.268 	 
C 	 -32.8212 	 56.2176 	 106.754 	 
H 	 -30.9536 	 55.6477 	 105.967 	 
C 	 -29.7245 	 58.3371 	 105.864 	 
H 	 -28.9748 	 57.8062 	 106.518 	 
H 	 -29.67 	 59.3591 	 106.271 	 
C 	 -29.4835 	 58.5418 	 104.367 	 
H 	 -29.3042 	 57.5268 	 104.045 	 
H 	 -30.3077 	 58.9081 	 103.865 	 
C 	 -28.198 	 59.2392 	 103.969 	 
H 	 -28.089 	 60.2678 	 104.339 	 
H 	 -27.2896 	 58.7347 	 104.371 	 
H 	 -28.0577 	 59.2506 	 102.86 	 
S 	 -35.0393 	 55.0715 	 105.871 	 
C 	 -35.291 	 53.3837 	 106.164 	 
C 	 -34.4062 	 52.8417 	 107.103 	 
C 	 -33.3469 	 53.7226 	 107.366 	 
C 	 -33.5856 	 54.99 	 106.86 	 
H 	 -34.4702 	 51.864 	 107.555 	 
C 	 -32.1694 	 53.3339 	 108.281 	 
H 	 -31.4883 	 54.1252 	 108.327 	 
H 	 -31.6253 	 52.5653 	 107.695 	 
C 	 -32.5347 	 52.9258 	 109.714 	 
H 	 -33.0507 	 51.9707 	 109.671 	 
H 	 -33.1167 	 53.6053 	 110.289 	 
C 	 -31.2333 	 52.6912 	 110.442 	 
H 	 -30.4475 	 53.5349 	 110.356 	 
H 	 -30.7999 	 51.7883 	 110.04 	 
H 	 -31.4427 	 52.5333 	 111.525 	 
H 	 -32.11 	 59.7696 	 107.049 	 
H 	 -36.1457 	 52.904 	 105.743 	 
