34

S 	 -95.0609 	 52.0281 	 120.575 	 
C 	 -94.0427 	 52.8527 	 119.375 	 
C 	 -94.7998 	 53.1904 	 118.233 	 
C 	 -96.1465 	 52.7124 	 118.384 	 
C 	 -96.4362 	 52.11 	 119.577 	 
H 	 -96.9898 	 52.9739 	 117.716 	 
C 	 -94.2855 	 54.0078 	 117.033 	 
H 	 -93.3668 	 53.482 	 116.624 	 
H 	 -93.917 	 54.9308 	 117.444 	 
C 	 -95.1604 	 54.3556 	 115.841 	 
H 	 -95.6781 	 53.4165 	 115.481 	 
H 	 -95.9608 	 55.0907 	 116.184 	 
C 	 -94.3367 	 54.9379 	 114.668 	 
H 	 -95.1218 	 55.3377 	 114.045 	 
H 	 -93.7108 	 55.7939 	 114.87 	 
H 	 -93.744 	 54.2173 	 114.047 	 
S 	 -98.3192 	 53.0465 	 121.259 	 
C 	 -99.8666 	 52.2749 	 121.575 	 
C 	 -99.9132 	 51.208 	 120.692 	 
C 	 -98.7431 	 50.9799 	 119.935 	 
C 	 -97.7261 	 51.8553 	 120.152 	 
H 	 -100.859 	 50.5754 	 120.63 	 
C 	 -98.6882 	 49.791 	 119.01 	 
H 	 -97.9265 	 50.036 	 118.292 	 
H 	 -99.6288 	 49.845 	 118.485 	 
C 	 -98.4893 	 48.4034 	 119.667 	 
H 	 -98.4972 	 47.5851 	 118.808 	 
H 	 -99.3869 	 48.0967 	 120.272 	 
C 	 -97.2051 	 48.388 	 120.595 	 
H 	 -96.9951 	 47.3903 	 120.972 	 
H 	 -97.3873 	 49.015 	 121.525 	 
H 	 -96.3414 	 48.7865 	 119.949 	 
H 	 -92.9694 	 53.0538 	 119.478 	 
H 	 -100.727 	 52.6062 	 122.155 	 
