34

S 	 0.700797 	 -10.9789 	 81.918 	 
C 	 0.20234 	 -12.3789 	 82.8481 	 
C 	 -1.12776 	 -12.7839 	 82.5333 	 
C 	 -1.67112 	 -11.9202 	 81.5032 	 
C 	 -0.876858 	 -10.9157 	 81.0994 	 
H 	 -2.63401 	 -11.8489 	 81.1267 	 
C 	 -1.79655 	 -13.995 	 83.0813 	 
H 	 -1.22169 	 -14.8762 	 83.0285 	 
H 	 -2.60294 	 -14.0064 	 82.333 	 
C 	 -2.57221 	 -13.8781 	 84.3617 	 
H 	 -1.78195 	 -13.8787 	 85.1387 	 
H 	 -3.07366 	 -12.9005 	 84.2893 	 
C 	 -3.45835 	 -15.1329 	 84.5748 	 
H 	 -4.08683 	 -14.9467 	 85.4238 	 
H 	 -4.20505 	 -15.3155 	 83.7802 	 
H 	 -2.7727 	 -15.9741 	 84.7974 	 
S 	 0.028782 	 -10.3235 	 78.6198 	 
C 	 -0.691408 	 -8.98348 	 77.7421 	 
C 	 -1.73317 	 -8.41351 	 78.4596 	 
C 	 -1.89828 	 -8.98951 	 79.7264 	 
C 	 -0.997731 	 -10.0366 	 79.9673 	 
H 	 -2.34932 	 -7.64913 	 77.9763 	 
C 	 -2.98661 	 -8.48091 	 80.6309 	 
H 	 -3.80886 	 -9.1195 	 80.4533 	 
H 	 -3.33794 	 -7.5161 	 80.3488 	 
C 	 -2.69341 	 -8.37116 	 82.0704 	 
H 	 -1.88437 	 -7.61371 	 82.2637 	 
H 	 -2.25732 	 -9.29261 	 82.4187 	 
C 	 -3.90903 	 -8.04493 	 82.9786 	 
H 	 -4.15861 	 -7.05263 	 82.8069 	 
H 	 -3.67339 	 -8.08415 	 84.0053 	 
H 	 -4.87214 	 -8.54326 	 82.8634 	 
H 	 0.820118 	 -12.9438 	 83.5377 	 
H 	 -0.502819 	 -8.56406 	 76.767 	 
