34

S 	 -19.7964 	 3.45316 	 81.974 	 
C 	 -18.3852 	 3.8504 	 82.8915 	 
C 	 -18.0779 	 2.85186 	 83.7738 	 
C 	 -19.0009 	 1.80865 	 83.7276 	 
C 	 -20.0556 	 1.97171 	 82.8874 	 
H 	 -18.866 	 0.798871 	 84.1635 	 
C 	 -16.7542 	 2.8885 	 84.5142 	 
H 	 -17.0238 	 3.12419 	 85.5797 	 
H 	 -16.1668 	 3.70636 	 84.1451 	 
C 	 -15.8466 	 1.65262 	 84.478 	 
H 	 -16.536 	 0.817722 	 84.837 	 
H 	 -15.3353 	 1.48374 	 83.5342 	 
C 	 -14.7699 	 1.68838 	 85.5207 	 
H 	 -14.1044 	 0.783753 	 85.52 	 
H 	 -14.1647 	 2.5763 	 85.4247 	 
H 	 -15.1349 	 1.63783 	 86.558 	 
S 	 -22.7853 	 1.47003 	 82.8584 	 
C 	 -23.3801 	 -0.145482 	 82.6882 	 
C 	 -22.3142 	 -0.977471 	 82.3036 	 
C 	 -21.0341 	 -0.367322 	 82.1962 	 
C 	 -21.1368 	 1.01431 	 82.6147 	 
H 	 -22.5324 	 -2.05514 	 82.0984 	 
C 	 -19.7547 	 -1.06018 	 81.8683 	 
H 	 -18.9872 	 -0.308586 	 81.752 	 
H 	 -19.8822 	 -1.56011 	 80.9193 	 
C 	 -19.3078 	 -2.04885 	 82.9098 	 
H 	 -20.0803 	 -2.8567 	 83.0284 	 
H 	 -19.2615 	 -1.4498 	 83.8661 	 
C 	 -17.9321 	 -2.61038 	 82.6797 	 
H 	 -17.7131 	 -3.1712 	 83.5913 	 
H 	 -17.2182 	 -1.78556 	 82.6418 	 
H 	 -17.8807 	 -3.27757 	 81.8623 	 
H 	 -17.8152 	 4.8148 	 82.8246 	 
H 	 -24.3392 	 -0.410265 	 83.0987 	 
