34

S 	 -71.809 	 33.6442 	 115.632 	 
C 	 -73.315 	 34.4032 	 116.055 	 
C 	 -73.2727 	 35.7211 	 115.729 	 
C 	 -72.014 	 36.1603 	 115.221 	 
C 	 -71.1107 	 35.1172 	 115.078 	 
H 	 -71.7041 	 37.1996 	 115.057 	 
C 	 -74.3481 	 36.6905 	 116.108 	 
H 	 -75.1937 	 36.5795 	 115.54 	 
H 	 -73.8134 	 37.6328 	 116.025 	 
C 	 -74.9088 	 36.548 	 117.555 	 
H 	 -75.2221 	 35.5326 	 117.627 	 
H 	 -74.0452 	 36.6722 	 118.252 	 
C 	 -76.0799 	 37.4033 	 117.732 	 
H 	 -76.9838 	 36.9399 	 117.328 	 
H 	 -76.3597 	 37.5757 	 118.717 	 
H 	 -75.8548 	 38.3653 	 117.284 	 
S 	 -68.6403 	 34.3337 	 115.527 	 
C 	 -67.2609 	 35.0006 	 114.662 	 
C 	 -67.6809 	 36.1079 	 113.949 	 
C 	 -69.1213 	 36.2641 	 113.821 	 
C 	 -69.7512 	 35.357 	 114.698 	 
H 	 -66.9538 	 36.661 	 113.435 	 
C 	 -69.7297 	 37.328 	 112.967 	 
H 	 -70.7791 	 37.4192 	 113.214 	 
H 	 -69.5976 	 37.0518 	 111.915 	 
C 	 -69.2184 	 38.7337 	 113.174 	 
H 	 -68.2636 	 38.7928 	 112.644 	 
H 	 -69.1163 	 38.9932 	 114.256 	 
C 	 -70.0254 	 39.8688 	 112.509 	 
H 	 -69.4867 	 40.7615 	 112.674 	 
H 	 -70.967 	 39.9533 	 112.937 	 
H 	 -70.1688 	 39.6537 	 111.492 	 
H 	 -74.0085 	 33.8148 	 116.621 	 
H 	 -66.2952 	 34.6266 	 114.674 	 
