34

S 	 -97.174 	 40.655 	 124.039 	 
C 	 -95.5795 	 39.9099 	 123.804 	 
C 	 -95.5257 	 39.0916 	 122.693 	 
C 	 -96.7416 	 39.1264 	 121.927 	 
C 	 -97.6703 	 40.0079 	 122.471 	 
H 	 -96.9208 	 38.598 	 120.973 	 
C 	 -94.275 	 38.3091 	 122.383 	 
H 	 -94.5912 	 37.3424 	 122.057 	 
H 	 -93.7053 	 38.0249 	 123.332 	 
C 	 -93.4157 	 38.8007 	 121.198 	 
H 	 -93.8669 	 38.7544 	 120.201 	 
H 	 -93.2679 	 39.8715 	 121.225 	 
C 	 -92.1249 	 38.0729 	 121.234 	 
H 	 -91.4556 	 38.3639 	 120.426 	 
H 	 -91.6433 	 38.2228 	 122.211 	 
H 	 -92.2778 	 37.0733 	 121.174 	 
S 	 -100.092 	 41.0568 	 123.061 	 
C 	 -101.327 	 41.3192 	 121.808 	 
C 	 -100.86 	 40.8437 	 120.609 	 
C 	 -99.5062 	 40.335 	 120.627 	 
C 	 -98.9319 	 40.4432 	 121.905 	 
H 	 -101.478 	 40.7293 	 119.762 	 
C 	 -98.9029 	 39.9416 	 119.296 	 
H 	 -97.8414 	 40.1186 	 119.453 	 
H 	 -99.1352 	 40.5875 	 118.459 	 
C 	 -98.9773 	 38.4087 	 118.922 	 
H 	 -99.9674 	 38.0593 	 118.991 	 
H 	 -98.442 	 37.9451 	 119.716 	 
C 	 -98.1761 	 38.151 	 117.605 	 
H 	 -98.1393 	 37.0801 	 117.362 	 
H 	 -97.1196 	 38.4466 	 117.607 	 
H 	 -98.6997 	 38.6685 	 116.819 	 
H 	 -94.7162 	 40.0622 	 124.484 	 
H 	 -102.308 	 41.7488 	 121.887 	 
