34

S 	 -41.5617 	 33.6516 	 88.1145 	 
C 	 -43.2049 	 33.55 	 88.4716 	 
C 	 -43.7018 	 32.2685 	 88.4977 	 
C 	 -42.7354 	 31.2842 	 88.189 	 
C 	 -41.5338 	 31.8937 	 87.8688 	 
H 	 -42.9329 	 30.2218 	 88.0323 	 
C 	 -45.1573 	 31.9225 	 88.8293 	 
H 	 -45.3815 	 32.0893 	 89.8973 	 
H 	 -45.2747 	 30.8751 	 88.6551 	 
C 	 -46.2506 	 32.7553 	 88.0575 	 
H 	 -47.2426 	 32.579 	 88.5563 	 
H 	 -46.1015 	 33.7547 	 88.3103 	 
C 	 -46.3747 	 32.4727 	 86.5371 	 
H 	 -45.4122 	 32.6506 	 86.0759 	 
H 	 -46.651 	 31.4791 	 86.25 	 
H 	 -47.0689 	 33.0915 	 86.0428 	 
S 	 -40.1747 	 31.8166 	 85.4759 	 
C 	 -39.1592 	 30.483 	 85.1162 	 
C 	 -38.8264 	 29.7967 	 86.2674 	 
C 	 -39.5189 	 30.2072 	 87.4352 	 
C 	 -40.3597 	 31.3225 	 87.1755 	 
H 	 -38.0972 	 28.9264 	 86.227 	 
C 	 -39.4066 	 29.4161 	 88.7301 	 
H 	 -39.8468 	 30.0759 	 89.5438 	 
H 	 -38.3496 	 29.3518 	 88.9531 	 
C 	 -39.9899 	 27.9342 	 88.749 	 
H 	 -39.6815 	 27.2931 	 89.6196 	 
H 	 -39.6705 	 27.426 	 87.8835 	 
C 	 -41.4356 	 27.9986 	 88.7191 	 
H 	 -41.907 	 28.3151 	 87.791 	 
H 	 -41.7953 	 28.635 	 89.4673 	 
H 	 -42.0094 	 27.0611 	 88.91 	 
H 	 -43.8861 	 34.3976 	 88.7226 	 
H 	 -38.7975 	 30.2228 	 84.1555 	 
