34

S 	 -15.3988 	 38.8199 	 36.8025 	 
C 	 -15.4361 	 39.1565 	 35.1285 	 
C 	 -14.5065 	 38.4353 	 34.4477 	 
C 	 -13.835 	 37.4663 	 35.2695 	 
C 	 -14.287 	 37.4095 	 36.5797 	 
H 	 -13.2379 	 36.7071 	 34.8731 	 
C 	 -14.3547 	 38.4916 	 32.9517 	 
H 	 -13.3181 	 38.6626 	 32.7173 	 
H 	 -14.7259 	 39.4321 	 32.6835 	 
C 	 -15.1338 	 37.4423 	 32.0959 	 
H 	 -16.1884 	 37.4239 	 32.3807 	 
H 	 -15.1599 	 37.8916 	 31.0599 	 
C 	 -14.4434 	 36.0985 	 31.8726 	 
H 	 -14.4108 	 35.57 	 32.8452 	 
H 	 -15.0998 	 35.4268 	 31.3157 	 
H 	 -13.3951 	 36.0753 	 31.5307 	 
S 	 -12.7262 	 37.8737 	 38.7559 	 
C 	 -11.8887 	 36.6191 	 39.5376 	 
C 	 -12.2392 	 35.3925 	 38.9698 	 
C 	 -13.193 	 35.4805 	 37.9431 	 
C 	 -13.5618 	 36.7962 	 37.7018 	 
H 	 -11.8016 	 34.4792 	 39.3459 	 
C 	 -13.7356 	 34.1673 	 37.2897 	 
H 	 -14.5437 	 34.4132 	 36.612 	 
H 	 -14.2637 	 33.6817 	 38.104 	 
C 	 -12.8531 	 33.1948 	 36.5314 	 
H 	 -12.329 	 32.6342 	 37.2839 	 
H 	 -11.9989 	 33.5369 	 35.9211 	 
C 	 -13.6568 	 32.3029 	 35.5817 	 
H 	 -13.8227 	 32.7217 	 34.6104 	 
H 	 -14.5534 	 31.9999 	 36.0508 	 
H 	 -13.215 	 31.322 	 35.3974 	 
H 	 -15.9897 	 40.0179 	 34.8078 	 
H 	 -11.1993 	 36.8695 	 40.3566 	 
