34

S 	 -22.3068 	 2.62089 	 75.7578 	 
C 	 -22.1794 	 0.834164 	 75.91 	 
C 	 -23.3612 	 0.31755 	 76.4018 	 
C 	 -24.3184 	 1.35729 	 76.6967 	 
C 	 -23.8905 	 2.66116 	 76.4689 	 
H 	 -25.3146 	 1.28309 	 77.2024 	 
C 	 -23.6313 	 -1.10906 	 76.8684 	 
H 	 -23.9499 	 -1.03334 	 77.8576 	 
H 	 -22.6508 	 -1.68589 	 76.866 	 
C 	 -24.6716 	 -1.98769 	 76.0874 	 
H 	 -24.566 	 -2.06518 	 75.0804 	 
H 	 -24.3978 	 -3.02133 	 76.4768 	 
C 	 -26.1504 	 -1.5246 	 76.3908 	 
H 	 -26.9291 	 -2.30992 	 76.1031 	 
H 	 -26.2955 	 -1.28719 	 77.4322 	 
H 	 -26.254 	 -0.63656 	 75.8015 	 
S 	 -23.139 	 4.9659 	 77.8003 	 
C 	 -24.2882 	 6.03232 	 78.4834 	 
C 	 -25.5953 	 5.61779 	 78.1652 	 
C 	 -25.6085 	 4.31651 	 77.485 	 
C 	 -24.3503 	 3.77793 	 77.2536 	 
H 	 -26.4085 	 6.28363 	 78.2978 	 
C 	 -26.8898 	 3.8087 	 76.9754 	 
H 	 -26.6724 	 3.13736 	 76.1372 	 
H 	 -27.4361 	 4.66203 	 76.5033 	 
C 	 -27.8701 	 3.14534 	 77.9371 	 
H 	 -28.1274 	 3.76603 	 78.8173 	 
H 	 -27.5037 	 2.19703 	 78.3108 	 
C 	 -29.1347 	 2.62112 	 77.1892 	 
H 	 -29.7608 	 2.14764 	 77.9253 	 
H 	 -28.7788 	 1.93953 	 76.4033 	 
H 	 -29.6702 	 3.45887 	 76.5948 	 
H 	 -21.3524 	 0.188588 	 75.5896 	 
H 	 -24.0255 	 7.03991 	 78.9396 	 
