34

S 	 -21.276 	 45.1651 	 56.7972 	 
C 	 -20.7553 	 46.4941 	 57.802 	 
C 	 -20.9404 	 46.1655 	 59.1738 	 
C 	 -21.4818 	 44.8825 	 59.3675 	 
C 	 -21.806 	 44.2632 	 58.1545 	 
H 	 -21.7633 	 44.4828 	 60.3362 	 
C 	 -20.4071 	 46.9736 	 60.3245 	 
H 	 -19.2993 	 46.9128 	 60.4108 	 
H 	 -20.7121 	 46.5218 	 61.3085 	 
C 	 -20.7725 	 48.4181 	 60.3276 	 
H 	 -20.0239 	 49.0607 	 60.8397 	 
H 	 -20.5928 	 48.7905 	 59.2998 	 
C 	 -22.1769 	 48.6214 	 60.9147 	 
H 	 -22.8333 	 47.8893 	 60.3682 	 
H 	 -22.2509 	 48.4724 	 62.0143 	 
H 	 -22.3626 	 49.7048 	 60.6741 	 
S 	 -21.4269 	 41.5363 	 58.4575 	 
C 	 -22.6616 	 40.4592 	 57.8752 	 
C 	 -23.7526 	 41.1688 	 57.5567 	 
C 	 -23.6305 	 42.5808 	 57.6076 	 
C 	 -22.362 	 42.9325 	 58.0432 	 
H 	 -24.5556 	 40.594 	 57.1537 	 
C 	 -24.7503 	 43.4158 	 57.2419 	 
H 	 -25.5701 	 42.961 	 56.635 	 
H 	 -24.2334 	 44.0894 	 56.5696 	 
C 	 -25.4775 	 44.218 	 58.3296 	 
H 	 -26.3233 	 44.6532 	 57.8149 	 
H 	 -24.8418 	 44.9363 	 58.7317 	 
C 	 -26.0093 	 43.3343 	 59.4797 	 
H 	 -26.8895 	 43.7924 	 59.9513 	 
H 	 -25.2246 	 43.359 	 60.2314 	 
H 	 -26.3867 	 42.3385 	 59.2518 	 
H 	 -20.3543 	 47.4139 	 57.582 	 
H 	 -22.5854 	 39.3714 	 57.7267 	 
