34

S 	 8.02374 	 -5.96058 	 87.1216 	 
C 	 8.19054 	 -4.24514 	 86.6742 	 
C 	 7.24847 	 -3.4811 	 87.2825 	 
C 	 6.23458 	 -4.33997 	 87.9245 	 
C 	 6.46146 	 -5.68927 	 87.9416 	 
H 	 5.32534 	 -4.04223 	 88.3313 	 
C 	 7.10553 	 -1.94661 	 87.2609 	 
H 	 6.06421 	 -1.69731 	 87.0883 	 
H 	 7.70506 	 -1.49248 	 86.5129 	 
C 	 7.47602 	 -1.2392 	 88.471 	 
H 	 6.93838 	 -0.227867 	 88.5159 	 
H 	 7.17509 	 -1.86766 	 89.372 	 
C 	 9.01581 	 -1.1037 	 88.6546 	 
H 	 9.24928 	 -0.829441 	 89.6715 	 
H 	 9.58556 	 -2.01264 	 88.4636 	 
H 	 9.3572 	 -0.378085 	 88.0225 	 
S 	 5.04287 	 -7.98194 	 87.305 	 
C 	 4.38383 	 -8.87205 	 88.6574 	 
C 	 4.54433 	 -8.22172 	 89.86 	 
C 	 5.1438 	 -6.92134 	 89.7864 	 
C 	 5.61584 	 -6.75506 	 88.5053 	 
H 	 4.13479 	 -8.62757 	 90.7893 	 
C 	 5.19843 	 -6.00084 	 91.0233 	 
H 	 4.21321 	 -6.18883 	 91.5316 	 
H 	 5.25742 	 -4.96966 	 90.6225 	 
C 	 6.22693 	 -6.32168 	 92.2148 	 
H 	 7.25469 	 -6.3139 	 91.7903 	 
H 	 5.99512 	 -7.28849 	 92.5989 	 
C 	 6.15185 	 -5.34051 	 93.3534 	 
H 	 6.04658 	 -4.28621 	 93.0196 	 
H 	 7.02339 	 -5.46276 	 94.0298 	 
H 	 5.18235 	 -5.54717 	 93.7832 	 
H 	 9.06223 	 -3.92202 	 86.2373 	 
H 	 3.94353 	 -9.90196 	 88.6124 	 
