34

S 	 -46.4003 	 55.6913 	 98.6237 	 
C 	 -47.4371 	 55.2135 	 99.9438 	 
C 	 -46.8068 	 54.298 	 100.767 	 
C 	 -45.5542 	 53.9896 	 100.365 	 
C 	 -45.184 	 54.5879 	 99.1701 	 
H 	 -44.9481 	 53.2438 	 100.871 	 
C 	 -47.476 	 53.5318 	 101.927 	 
H 	 -47.1241 	 52.5384 	 101.942 	 
H 	 -48.5273 	 53.4633 	 101.69 	 
C 	 -47.3152 	 54.0977 	 103.352 	 
H 	 -46.2221 	 54.2022 	 103.547 	 
H 	 -47.5254 	 55.1631 	 103.482 	 
C 	 -47.9524 	 53.2833 	 104.455 	 
H 	 -47.5968 	 53.5551 	 105.437 	 
H 	 -49.0507 	 53.3135 	 104.381 	 
H 	 -47.6681 	 52.2661 	 104.296 	 
S 	 -44.2439 	 53.579 	 96.8815 	 
C 	 -42.5602 	 53.3999 	 96.5426 	 
C 	 -41.8364 	 53.6358 	 97.6831 	 
C 	 -42.6347 	 54.1482 	 98.733 	 
C 	 -43.9666 	 54.3755 	 98.379 	 
H 	 -40.7456 	 53.4404 	 97.7589 	 
C 	 -42.0524 	 54.466 	 100.093 	 
H 	 -41.1905 	 53.8197 	 100.263 	 
H 	 -42.8233 	 54.2395 	 100.914 	 
C 	 -41.4195 	 55.909 	 100.215 	 
H 	 -40.7846 	 56.0475 	 99.3779 	 
H 	 -40.8735 	 56.022 	 101.109 	 
C 	 -42.5309 	 57.0102 	 100.304 	 
H 	 -42.116 	 57.957 	 100.147 	 
H 	 -43.1276 	 56.9698 	 101.231 	 
H 	 -43.2925 	 56.8002 	 99.5155 	 
H 	 -48.4585 	 55.3242 	 99.9574 	 
H 	 -42.1274 	 53.0896 	 95.5991 	 
