34

S 	 -13.8624 	 57.336 	 59.0219 	 
C 	 -13.1656 	 56.4379 	 57.7396 	 
C 	 -12.549 	 55.2806 	 58.1549 	 
C 	 -12.7245 	 55.0995 	 59.5294 	 
C 	 -13.4212 	 56.102 	 60.1173 	 
H 	 -12.413 	 54.2959 	 60.0971 	 
C 	 -11.6546 	 54.3121 	 57.4401 	 
H 	 -10.5958 	 54.4313 	 57.7938 	 
H 	 -11.6368 	 54.7744 	 56.4341 	 
C 	 -12.0409 	 52.8611 	 57.3798 	 
H 	 -11.1415 	 52.2344 	 56.9426 	 
H 	 -12.0796 	 52.4635 	 58.4305 	 
C 	 -13.2207 	 52.5428 	 56.5348 	 
H 	 -13.4543 	 51.4881 	 56.748 	 
H 	 -14.1418 	 53.0835 	 56.7949 	 
H 	 -13.1328 	 52.654 	 55.4483 	 
S 	 -13.1316 	 57.8894 	 62.2093 	 
C 	 -13.5885 	 57.4482 	 63.7672 	 
C 	 -13.8841 	 56.1216 	 63.8289 	 
C 	 -13.9421 	 55.3898 	 62.5928 	 
C 	 -13.6037 	 56.3083 	 61.546 	 
H 	 -14.2052 	 55.8105 	 64.7803 	 
C 	 -14.2825 	 53.9048 	 62.4532 	 
H 	 -13.3525 	 53.3344 	 62.4618 	 
H 	 -14.765 	 53.7826 	 61.4367 	 
C 	 -15.1255 	 53.3352 	 63.6255 	 
H 	 -14.5914 	 53.5848 	 64.5775 	 
H 	 -15.09 	 52.2409 	 63.5949 	 
C 	 -16.5953 	 53.8599 	 63.6739 	 
H 	 -17.2855 	 53.6333 	 62.8307 	 
H 	 -16.6886 	 54.9269 	 63.8544 	 
H 	 -17.1226 	 53.4142 	 64.5158 	 
H 	 -12.9562 	 56.726 	 56.7086 	 
H 	 -13.5131 	 58.1045 	 64.6482 	 
