34

S 	 -79.4314 	 42.6725 	 127.072 	 
C 	 -80.9144 	 43.5753 	 126.65 	 
C 	 -81.0132 	 44.7101 	 127.421 	 
C 	 -79.9247 	 44.8383 	 128.379 	 
C 	 -78.9916 	 43.8451 	 128.264 	 
H 	 -79.663 	 45.6507 	 129.013 	 
C 	 -82.1551 	 45.7765 	 127.38 	 
H 	 -82.2316 	 46.1454 	 126.335 	 
H 	 -81.9181 	 46.7225 	 127.865 	 
C 	 -83.4834 	 45.3743 	 128.023 	 
H 	 -83.2558 	 45.1711 	 129.115 	 
H 	 -84.0797 	 46.246 	 127.996 	 
C 	 -84.2444 	 44.1462 	 127.474 	 
H 	 -84.2531 	 44.0118 	 126.381 	 
H 	 -83.7547 	 43.2722 	 127.953 	 
H 	 -85.2204 	 44.2148 	 127.834 	 
S 	 -76.8025 	 45.0058 	 129.347 	 
C 	 -75.7387 	 44.168 	 130.434 	 
C 	 -76.0398 	 42.8228 	 130.387 	 
C 	 -77.2509 	 42.4803 	 129.694 	 
C 	 -77.8909 	 43.6143 	 129.171 	 
H 	 -75.3884 	 42.1537 	 130.877 	 
C 	 -77.6518 	 41.0287 	 129.664 	 
H 	 -78.7186 	 41.0685 	 129.389 	 
H 	 -77.5847 	 40.715 	 130.697 	 
C 	 -76.8459 	 40.0016 	 128.842 	 
H 	 -75.9095 	 39.8868 	 129.418 	 
H 	 -76.6122 	 40.5207 	 127.912 	 
C 	 -77.6621 	 38.6979 	 128.556 	 
H 	 -77.8784 	 38.1107 	 129.481 	 
H 	 -77.1144 	 37.9225 	 127.946 	 
H 	 -78.5929 	 38.9519 	 128.004 	 
H 	 -81.6966 	 43.164 	 125.986 	 
H 	 -74.8935 	 44.6055 	 130.851 	 
