34

S 	 -67.8824 	 42.2747 	 119.96 	 
C 	 -69.2336 	 42.8618 	 119.124 	 
C 	 -70.4725 	 42.758 	 119.821 	 
C 	 -70.2726 	 42.238 	 121.142 	 
C 	 -68.8977 	 41.9624 	 121.41 	 
H 	 -70.9686 	 42.3401 	 121.951 	 
C 	 -71.7877 	 43.2877 	 119.262 	 
H 	 -72.589 	 42.606 	 119.638 	 
H 	 -71.7009 	 43.3196 	 118.181 	 
C 	 -72.1501 	 44.6857 	 119.797 	 
H 	 -72.2737 	 44.8167 	 120.887 	 
H 	 -71.313 	 45.3895 	 119.576 	 
C 	 -73.4273 	 45.1504 	 119.139 	 
H 	 -73.6789 	 46.18 	 119.482 	 
H 	 -73.4659 	 45.1359 	 118.111 	 
H 	 -74.31 	 44.5628 	 119.419 	 
S 	 -66.8375 	 40.5578 	 122.716 	 
C 	 -66.626 	 40.801 	 124.353 	 
C 	 -67.6365 	 41.5178 	 125.004 	 
C 	 -68.5569 	 42.0179 	 124.097 	 
C 	 -68.295 	 41.5532 	 122.786 	 
H 	 -67.4974 	 41.6968 	 126.082 	 
C 	 -69.6252 	 42.9845 	 124.613 	 
H 	 -69.6925 	 43.8742 	 123.942 	 
H 	 -69.3019 	 43.4855 	 125.498 	 
C 	 -70.9408 	 42.362 	 124.968 	 
H 	 -70.9604 	 41.9758 	 126.009 	 
H 	 -71.1344 	 41.3626 	 124.548 	 
C 	 -72.0939 	 43.3204 	 124.642 	 
H 	 -72.0853 	 43.6249 	 123.586 	 
H 	 -72.2516 	 44.0663 	 125.475 	 
H 	 -73.0035 	 42.6609 	 124.571 	 
H 	 -69.1275 	 43.4034 	 118.189 	 
H 	 -65.792 	 40.2713 	 124.885 	 
