34

S 	 -35.4932 	 52.4946 	 108.091 	 
C 	 -36.9648 	 51.7699 	 108.674 	 
C 	 -37.5821 	 50.9163 	 107.741 	 
C 	 -36.759 	 50.8464 	 106.532 	 
C 	 -35.5539 	 51.5303 	 106.607 	 
H 	 -37.0029 	 50.2023 	 105.708 	 
C 	 -38.8411 	 50.1742 	 107.956 	 
H 	 -38.5541 	 49.5564 	 108.751 	 
H 	 -39.1876 	 49.5288 	 107.098 	 
C 	 -40.0968 	 51.1345 	 108.466 	 
H 	 -39.7593 	 51.6056 	 109.392 	 
H 	 -40.2913 	 51.9473 	 107.847 	 
C 	 -41.2482 	 50.2063 	 108.764 	 
H 	 -42.0345 	 50.8228 	 109.173 	 
H 	 -41.7173 	 49.8113 	 107.839 	 
H 	 -41.1001 	 49.433 	 109.483 	 
S 	 -32.785 	 51.7329 	 106.17 	 
C 	 -32.1496 	 51.9295 	 104.565 	 
C 	 -33.1729 	 51.8804 	 103.659 	 
C 	 -34.4787 	 51.6743 	 104.226 	 
C 	 -34.4642 	 51.7091 	 105.654 	 
H 	 -32.8863 	 51.8685 	 102.619 	 
C 	 -35.7224 	 51.4665 	 103.348 	 
H 	 -35.9259 	 52.2402 	 102.65 	 
H 	 -36.5563 	 51.4975 	 104.059 	 
C 	 -35.6955 	 50.1824 	 102.591 	 
H 	 -35.8067 	 49.271 	 103.233 	 
H 	 -34.8652 	 50.1115 	 101.931 	 
C 	 -36.9217 	 49.9108 	 101.728 	 
H 	 -36.7571 	 48.9712 	 101.146 	 
H 	 -37.1348 	 50.8153 	 101.149 	 
H 	 -37.844 	 49.685 	 102.243 	 
H 	 -37.36 	 52.0588 	 109.632 	 
H 	 -31.0913 	 52.0705 	 104.313 	 
