34

S 	 -73.3796 	 45.9393 	 121.986 	 
C 	 -74.8244 	 45.7673 	 121.135 	 
C 	 -75.8975 	 46.3056 	 121.835 	 
C 	 -75.4257 	 47.1263 	 122.888 	 
C 	 -74.0486 	 47.158 	 123.039 	 
H 	 -76.0309 	 47.6575 	 123.593 	 
C 	 -77.3585 	 46.1431 	 121.514 	 
H 	 -77.348 	 45.4357 	 120.696 	 
H 	 -77.6785 	 47.1015 	 121.057 	 
C 	 -78.2334 	 45.4675 	 122.66 	 
H 	 -78.3095 	 46.0847 	 123.532 	 
H 	 -79.2901 	 45.3484 	 122.371 	 
C 	 -77.6255 	 44.1635 	 123.251 	 
H 	 -76.8788 	 44.4029 	 124.058 	 
H 	 -78.4144 	 43.6739 	 123.742 	 
H 	 -77.1721 	 43.5175 	 122.486 	 
S 	 -71.624 	 47.1703 	 124.14 	 
C 	 -71.0789 	 48.4109 	 125.204 	 
C 	 -72.0262 	 49.3875 	 125.356 	 
C 	 -73.2571 	 49.0608 	 124.654 	 
C 	 -73.1529 	 47.8986 	 123.979 	 
H 	 -71.8684 	 50.246 	 126.019 	 
C 	 -74.3482 	 50.1172 	 124.601 	 
H 	 -74.7859 	 50.2854 	 125.559 	 
H 	 -75.1891 	 49.6494 	 124.069 	 
C 	 -73.9221 	 51.4262 	 123.948 	 
H 	 -73.5818 	 51.0437 	 122.938 	 
H 	 -73.0723 	 51.7967 	 124.502 	 
C 	 -75.0969 	 52.4087 	 123.682 	 
H 	 -74.7721 	 53.3424 	 123.283 	 
H 	 -75.6485 	 52.708 	 124.656 	 
H 	 -75.7666 	 52.011 	 122.885 	 
H 	 -74.94 	 45.0691 	 120.292 	 
H 	 -70.1387 	 48.4501 	 125.723 	 
