34

S 	 -39.7045 	 36.0927 	 84.5262 	 
C 	 -41.2126 	 36.2441 	 83.7307 	 
C 	 -42.1418 	 35.4229 	 84.435 	 
C 	 -41.5329 	 34.6317 	 85.4069 	 
C 	 -40.1591 	 34.7211 	 85.4367 	 
H 	 -42.0734 	 34.064 	 86.1561 	 
C 	 -43.6439 	 35.6796 	 84.3459 	 
H 	 -43.789 	 36.7557 	 84.1638 	 
H 	 -44.0692 	 35.5961 	 85.3407 	 
C 	 -44.3082 	 34.8472 	 83.3464 	 
H 	 -45.3103 	 35.261 	 83.1409 	 
H 	 -43.7625 	 35.0993 	 82.4622 	 
C 	 -44.2881 	 33.3224 	 83.7697 	 
H 	 -45.1027 	 32.7616 	 83.2745 	 
H 	 -43.3204 	 32.9349 	 83.4177 	 
H 	 -44.2266 	 33.1593 	 84.8171 	 
S 	 -38.3455 	 34.9963 	 87.3867 	 
C 	 -37.6173 	 33.6488 	 88.1921 	 
C 	 -38.1069 	 32.4257 	 87.7617 	 
C 	 -39.121 	 32.6277 	 86.6708 	 
C 	 -39.2418 	 33.9588 	 86.3192 	 
H 	 -37.6733 	 31.4639 	 88.0479 	 
C 	 -39.6982 	 31.481 	 85.9808 	 
H 	 -38.9005 	 31.1214 	 85.3088 	 
H 	 -40.4667 	 31.9125 	 85.3854 	 
C 	 -40.3498 	 30.3591 	 86.7928 	 
H 	 -41.0357 	 30.782 	 87.4639 	 
H 	 -39.6791 	 30.1142 	 87.5814 	 
C 	 -40.8694 	 29.1057 	 86.057 	 
H 	 -40.1538 	 28.5556 	 85.4413 	 
H 	 -41.7182 	 29.3243 	 85.42 	 
H 	 -41.3688 	 28.5599 	 86.8752 	 
H 	 -41.4656 	 37.096 	 83.1477 	 
H 	 -36.8167 	 33.8306 	 88.9199 	 
