34

S 	 -28.9942 	 65.2614 	 101.393 	 
C 	 -27.5722 	 64.3571 	 100.913 	 
C 	 -26.6504 	 64.2678 	 101.901 	 
C 	 -27.0203 	 65.0275 	 103.041 	 
C 	 -28.124 	 65.7833 	 102.832 	 
H 	 -26.5336 	 64.9548 	 104.041 	 
C 	 -25.4803 	 63.3559 	 101.943 	 
H 	 -25.2179 	 62.9637 	 100.901 	 
H 	 -25.8056 	 62.4922 	 102.549 	 
C 	 -24.1515 	 63.9369 	 102.496 	 
H 	 -23.7676 	 64.6405 	 101.823 	 
H 	 -24.2959 	 64.5729 	 103.459 	 
C 	 -23.0738 	 63.0375 	 102.939 	 
H 	 -22.5219 	 62.7267 	 102.083 	 
H 	 -22.4457 	 63.4373 	 103.678 	 
H 	 -23.4948 	 62.2114 	 103.44 	 
S 	 -29.8193 	 67.9093 	 102.981 	 
C 	 -30.1838 	 68.6751 	 104.468 	 
C 	 -29.507 	 68.1135 	 105.488 	 
C 	 -28.8266 	 66.8868 	 105.1 	 
C 	 -28.8061 	 66.676 	 103.731 	 
H 	 -29.5994 	 68.4957 	 106.452 	 
C 	 -28.0837 	 66.2098 	 106.238 	 
H 	 -27.9367 	 65.1749 	 105.899 	 
H 	 -28.7845 	 66.2119 	 107.112 	 
C 	 -26.6375 	 66.8244 	 106.469 	 
H 	 -26.2246 	 67.0606 	 105.449 	 
H 	 -26.0983 	 65.9645 	 106.911 	 
C 	 -26.5725 	 68.0049 	 107.456 	 
H 	 -27.0497 	 67.9613 	 108.453 	 
H 	 -27.0401 	 68.8725 	 106.976 	 
H 	 -25.4971 	 68.172 	 107.723 	 
H 	 -27.6014 	 63.6233 	 100.148 	 
H 	 -30.826 	 69.5415 	 104.507 	 
