34

S 	 -30.1695 	 61.7045 	 107.913 	 
C 	 -29.0627 	 63.1233 	 107.734 	 
C 	 -29.7385 	 64.2253 	 107.199 	 
C 	 -31.1365 	 63.9678 	 106.973 	 
C 	 -31.5392 	 62.6692 	 107.416 	 
H 	 -31.8367 	 64.7366 	 106.485 	 
C 	 -29.1 	 65.5783 	 106.937 	 
H 	 -28.0129 	 65.6155 	 107.17 	 
H 	 -29.4736 	 66.1516 	 107.784 	 
C 	 -29.6304 	 66.4911 	 105.765 	 
H 	 -30.6983 	 66.4366 	 105.694 	 
H 	 -29.389 	 67.5167 	 105.945 	 
C 	 -28.9914 	 66.0661 	 104.449 	 
H 	 -29.439 	 65.1099 	 104.237 	 
H 	 -29.1 	 66.6578 	 103.526 	 
H 	 -27.9017 	 65.9669 	 104.651 	 
S 	 -33.9647 	 62.2095 	 108.399 	 
C 	 -35.2543 	 61.4188 	 107.531 	 
C 	 -34.755 	 60.9955 	 106.331 	 
C 	 -33.3922 	 61.3924 	 106.012 	 
C 	 -32.8098 	 62.0278 	 107.13 	 
H 	 -35.4306 	 60.4542 	 105.615 	 
C 	 -32.7912 	 61.2959 	 104.686 	 
H 	 -31.822 	 61.8117 	 104.782 	 
H 	 -33.3602 	 61.8278 	 103.915 	 
C 	 -32.6178 	 59.8074 	 104.211 	 
H 	 -33.5732 	 59.3195 	 104.162 	 
H 	 -32.2033 	 59.2513 	 105.022 	 
C 	 -31.7984 	 59.4851 	 102.991 	 
H 	 -30.7263 	 59.8547 	 103.11 	 
H 	 -32.3228 	 60.1083 	 102.274 	 
H 	 -31.8966 	 58.4055 	 102.807 	 
H 	 -28.1623 	 63.1689 	 108.125 	 
H 	 -36.2326 	 61.3431 	 107.844 	 
