34

S 	 -54.5139 	 15.1648 	 90.2463 	 
C 	 -53.0754 	 16.0379 	 90.1859 	 
C 	 -52.3258 	 15.8071 	 89.0312 	 
C 	 -52.9742 	 14.9623 	 88.1941 	 
C 	 -54.2249 	 14.5356 	 88.6074 	 
H 	 -52.5737 	 14.6668 	 87.191 	 
C 	 -51.0456 	 16.4746 	 88.7594 	 
H 	 -50.8722 	 17.3334 	 89.4702 	 
H 	 -51.1007 	 17.027 	 87.7828 	 
C 	 -49.7842 	 15.5639 	 88.9849 	 
H 	 -48.949 	 16.2265 	 89.289 	 
H 	 -50.0011 	 15.0167 	 89.9046 	 
C 	 -49.3984 	 14.6487 	 87.7836 	 
H 	 -50.2809 	 13.9602 	 87.6727 	 
H 	 -49.139 	 15.161 	 86.8768 	 
H 	 -48.5947 	 13.9673 	 88.0968 	 
S 	 -54.6582 	 11.8566 	 88.8692 	 
C 	 -55.4836 	 10.8996 	 87.6692 	 
C 	 -55.9901 	 11.7114 	 86.6611 	 
C 	 -55.611 	 13.0983 	 86.8486 	 
C 	 -54.9447 	 13.3641 	 88.0167 	 
H 	 -56.5359 	 11.3033 	 85.8204 	 
C 	 -55.8861 	 14.1117 	 85.7793 	 
H 	 -55.7514 	 15.1173 	 86.174 	 
H 	 -56.9438 	 14.0601 	 85.547 	 
C 	 -55.2359 	 13.8938 	 84.3833 	 
H 	 -55.6567 	 14.7382 	 83.7959 	 
H 	 -55.6659 	 12.9405 	 84.0018 	 
C 	 -53.6765 	 13.9013 	 84.5966 	 
H 	 -53.3243 	 13.1301 	 85.2394 	 
H 	 -53.3987 	 14.804 	 85.1244 	 
H 	 -53.1084 	 13.9309 	 83.685 	 
H 	 -52.8292 	 16.7227 	 90.967 	 
H 	 -55.5533 	 9.80211 	 87.6938 	 
