34

S 	 20.4022 	 32.7898 	 58.7698 	 
C 	 18.6425 	 32.9984 	 58.8321 	 
C 	 18.2093 	 33.6338 	 57.6521 	 
C 	 19.2457 	 33.9323 	 56.7386 	 
C 	 20.5236 	 33.5848 	 57.1651 	 
H 	 19.1109 	 34.324 	 55.7468 	 
C 	 16.8 	 33.9302 	 57.4635 	 
H 	 16.077 	 33.4558 	 58.0699 	 
H 	 16.4567 	 33.6448 	 56.476 	 
C 	 16.5811 	 35.4541 	 57.5557 	 
H 	 16.877 	 35.8619 	 58.5065 	 
H 	 17.3047 	 35.8995 	 56.8106 	 
C 	 15.1927 	 35.8685 	 57.2219 	 
H 	 14.5241 	 35.125 	 56.8763 	 
H 	 14.7014 	 36.3787 	 58.0441 	 
H 	 15.2663 	 36.5769 	 56.373 	 
S 	 22.6494 	 32.0775 	 56.3544 	 
C 	 23.8409 	 32.8388 	 55.2098 	 
C 	 23.5644 	 34.139 	 54.9563 	 
C 	 22.3492 	 34.5433 	 55.5938 	 
C 	 21.806 	 33.5793 	 56.4313 	 
H 	 24.367 	 34.5894 	 54.3452 	 
C 	 21.8109 	 35.9485 	 55.4137 	 
H 	 20.7787 	 35.9 	 55.7609 	 
H 	 21.8824 	 36.3397 	 54.3549 	 
C 	 22.4307 	 37.141 	 56.2181 	 
H 	 23.3919 	 37.3972 	 55.8327 	 
H 	 22.6021 	 36.689 	 57.2329 	 
C 	 21.3866 	 38.2916 	 56.311 	 
H 	 21.8187 	 39.1947 	 56.8095 	 
H 	 20.4244 	 38.0596 	 56.7442 	 
H 	 21.1192 	 38.6826 	 55.3915 	 
H 	 17.9827 	 32.8863 	 59.6493 	 
H 	 24.5658 	 32.2675 	 54.6908 	 
