34

S 	 -8.16287 	 15.2953 	 82.1704 	 
C 	 -8.60348 	 15.2562 	 80.4456 	 
C 	 -8.46578 	 16.5597 	 79.9243 	 
C 	 -7.85704 	 17.4869 	 80.7887 	 
C 	 -7.64833 	 16.9709 	 82.0891 	 
H 	 -7.64201 	 18.5147 	 80.5829 	 
C 	 -8.95248 	 16.8792 	 78.529 	 
H 	 -8.45293 	 16.3032 	 77.7185 	 
H 	 -8.51494 	 17.838 	 78.3258 	 
C 	 -10.4251 	 16.9242 	 78.2786 	 
H 	 -10.5976 	 17.1576 	 77.1608 	 
H 	 -10.7739 	 15.9059 	 78.4323 	 
C 	 -11.1802 	 18.0172 	 78.9957 	 
H 	 -12.2192 	 17.9236 	 78.8126 	 
H 	 -11.0794 	 17.9838 	 80.0875 	 
H 	 -10.9093 	 19.0058 	 78.6624 	 
S 	 -8.2044 	 17.7204 	 84.5897 	 
C 	 -7.18921 	 18.8903 	 85.4163 	 
C 	 -6.01962 	 19.2047 	 84.7137 	 
C 	 -5.96653 	 18.4869 	 83.476 	 
C 	 -7.08744 	 17.6527 	 83.2835 	 
H 	 -5.26172 	 19.9106 	 85.0217 	 
C 	 -4.8614 	 18.7846 	 82.509 	 
H 	 -4.5857 	 19.8589 	 82.508 	 
H 	 -5.25412 	 18.5939 	 81.4901 	 
C 	 -3.55856 	 17.9168 	 82.5804 	 
H 	 -3.2188 	 17.8061 	 83.5969 	 
H 	 -2.70639 	 18.4261 	 82.0637 	 
C 	 -3.743 	 16.6192 	 81.8848 	 
H 	 -4.10694 	 16.6241 	 80.8546 	 
H 	 -4.39938 	 15.9734 	 82.5436 	 
H 	 -2.80353 	 16.0138 	 81.7279 	 
H 	 -9.16685 	 14.4911 	 79.8402 	 
H 	 -7.607 	 19.412 	 86.2512 	 
