34

S 	 0.257312 	 2.8267 	 82.5319 	 
C 	 -0.115986 	 1.19932 	 82.5496 	 
C 	 0.861898 	 0.512656 	 83.2931 	 
C 	 1.83901 	 1.31544 	 83.9278 	 
C 	 1.64701 	 2.64436 	 83.6213 	 
H 	 2.8727 	 0.982324 	 84.247 	 
C 	 0.95824 	 -0.960255 	 83.4206 	 
H 	 1.97954 	 -1.30989 	 83.5144 	 
H 	 0.676365 	 -1.38724 	 82.4987 	 
C 	 0.0733212 	 -1.70585 	 84.4375 	 
H 	 0.310719 	 -1.18962 	 85.3043 	 
H 	 -0.974502 	 -1.52066 	 84.3002 	 
C 	 0.265235 	 -3.21337 	 84.6587 	 
H 	 -0.364233 	 -3.62669 	 85.4701 	 
H 	 -0.0417388 	 -3.73358 	 83.7441 	 
H 	 1.31558 	 -3.46002 	 84.8636 	 
S 	 3.35281 	 4.47966 	 82.3646 	 
C 	 4.17721 	 5.54965 	 83.3511 	 
C 	 3.84104 	 5.46401 	 84.6516 	 
C 	 2.87773 	 4.501 	 84.9628 	 
C 	 2.5282 	 3.80663 	 83.8029 	 
H 	 4.2309 	 6.20764 	 85.3236 	 
C 	 2.31841 	 4.1606 	 86.3488 	 
H 	 2.11752 	 3.03259 	 86.3635 	 
H 	 1.30581 	 4.58742 	 86.5483 	 
C 	 3.26484 	 4.57991 	 87.5177 	 
H 	 4.29809 	 4.19615 	 87.3756 	 
H 	 3.03522 	 3.91452 	 88.36 	 
C 	 3.24187 	 6.04244 	 88.0221 	 
H 	 3.3109 	 6.66616 	 87.1652 	 
H 	 4.00589 	 6.2296 	 88.7601 	 
H 	 2.38208 	 6.19863 	 88.6269 	 
H 	 -0.946273 	 0.70668 	 82.0481 	 
H 	 5.02409 	 6.11695 	 82.906 	 
