34

S 	 -31.7801 	 61.9712 	 109.537 	 
C 	 -31.4862 	 60.305 	 109.073 	 
C 	 -30.8255 	 59.5699 	 110.047 	 
C 	 -30.4652 	 60.4286 	 111.182 	 
C 	 -30.9155 	 61.7322 	 111.058 	 
H 	 -29.944 	 60.0666 	 112.047 	 
C 	 -30.258 	 58.1169 	 110 	 
H 	 -31.0867 	 57.3285 	 110.012 	 
H 	 -29.8023 	 57.9008 	 110.957 	 
C 	 -29.2607 	 57.8105 	 108.885 	 
H 	 -29.7714 	 58.0537 	 107.941 	 
H 	 -28.4147 	 58.5154 	 109.039 	 
C 	 -28.8147 	 56.3417 	 108.704 	 
H 	 -28.1935 	 56.084 	 109.664 	 
H 	 -29.6738 	 55.799 	 108.58 	 
H 	 -28.1426 	 56.277 	 107.878 	 
S 	 -32.1521 	 63.9976 	 111.952 	 
C 	 -31.583 	 64.8711 	 113.364 	 
C 	 -30.3064 	 64.4239 	 113.679 	 
C 	 -29.9327 	 63.1766 	 113.056 	 
C 	 -30.8201 	 62.8191 	 112.016 	 
H 	 -29.6135 	 64.8777 	 114.424 	 
C 	 -28.6153 	 62.4817 	 113.37 	 
H 	 -28.8573 	 61.3688 	 113.488 	 
H 	 -28.3267 	 62.8303 	 114.362 	 
C 	 -27.4708 	 62.8366 	 112.406 	 
H 	 -27.3435 	 63.8946 	 112.233 	 
H 	 -27.6982 	 62.5682 	 111.353 	 
C 	 -26.1443 	 62.2389 	 112.907 	 
H 	 -25.4367 	 62.1732 	 112.111 	 
H 	 -26.2908 	 61.229 	 113.351 	 
H 	 -25.6428 	 62.8322 	 113.679 	 
H 	 -31.7187 	 60.0084 	 108.067 	 
H 	 -32.0352 	 65.7305 	 113.663 	 
