34

S 	 34.2867 	 17.4695 	 62.5239 	 
C 	 33.7888 	 18.1957 	 64.0214 	 
C 	 34.5748 	 17.8141 	 65.1102 	 
C 	 35.6076 	 16.9432 	 64.6937 	 
C 	 35.5852 	 16.6141 	 63.3495 	 
H 	 36.3352 	 16.5196 	 65.3487 	 
C 	 34.4035 	 18.2776 	 66.5475 	 
H 	 33.4982 	 18.9127 	 66.6208 	 
H 	 35.2041 	 18.9322 	 66.8156 	 
C 	 34.2678 	 17.1919 	 67.5778 	 
H 	 33.3588 	 16.6043 	 67.3312 	 
H 	 35.1693 	 16.4842 	 67.4228 	 
C 	 34.0572 	 17.6699 	 69.0416 	 
H 	 33.0111 	 18.0851 	 69.1008 	 
H 	 34.147 	 16.8605 	 69.7599 	 
H 	 34.7097 	 18.4185 	 69.3553 	 
S 	 37.3345 	 16.703 	 61.2111 	 
C 	 38.723 	 15.5541 	 61.1655 	 
C 	 38.5957 	 14.6549 	 62.1948 	 
C 	 37.4549 	 14.8368 	 63.0249 	 
C 	 36.656 	 15.9271 	 62.6192 	 
H 	 39.4407 	 13.937 	 62.1989 	 
C 	 37.0543 	 13.9186 	 64.1038 	 
H 	 36.0107 	 14.0429 	 64.4752 	 
H 	 37.6447 	 14.2778 	 65.0159 	 
C 	 37.2965 	 12.4386 	 63.7393 	 
H 	 37.57 	 12.0605 	 64.6693 	 
H 	 38.2545 	 12.3412 	 63.2576 	 
C 	 36.1888 	 11.6033 	 63.0988 	 
H 	 36.1931 	 11.9468 	 62.0977 	 
H 	 35.258 	 11.7836 	 63.6314 	 
H 	 36.3486 	 10.6041 	 63.1402 	 
H 	 33.1732 	 19.0353 	 64.2092 	 
H 	 39.5787 	 15.6064 	 60.5318 	 
