34

S 	 22.7175 	 1.13247 	 84.6244 	 
C 	 23.782 	 1.9056 	 85.7745 	 
C 	 24.7545 	 2.69484 	 85.1848 	 
C 	 24.4995 	 2.88585 	 83.7948 	 
C 	 23.3865 	 2.18298 	 83.3303 	 
H 	 25.0521 	 3.50927 	 83.1657 	 
C 	 25.8245 	 3.43984 	 85.9534 	 
H 	 26.1617 	 2.71936 	 86.6778 	 
H 	 25.3297 	 4.18441 	 86.5654 	 
C 	 26.9771 	 4.05633 	 85.2629 	 
H 	 27.3014 	 3.40988 	 84.4251 	 
H 	 26.6826 	 4.94671 	 84.7936 	 
C 	 28.1396 	 4.58722 	 86.1554 	 
H 	 28.6537 	 3.74953 	 86.7007 	 
H 	 28.9178 	 5.22131 	 85.6017 	 
H 	 27.7788 	 5.25521 	 86.8629 	 
S 	 22.8651 	 0.486501 	 81.2266 	 
C 	 22.7919 	 1.1614 	 79.6469 	 
C 	 22.7504 	 2.55978 	 79.7195 	 
C 	 22.8362 	 3.07671 	 81.0111 	 
C 	 22.9558 	 2.10209 	 81.9545 	 
H 	 22.6432 	 3.07657 	 78.8071 	 
C 	 22.9176 	 4.53736 	 81.1406 	 
H 	 23.4049 	 4.99677 	 80.3035 	 
H 	 23.5514 	 4.82844 	 82.0224 	 
C 	 21.5462 	 5.22842 	 81.1494 	 
H 	 20.8957 	 4.91089 	 81.9959 	 
H 	 20.8619 	 4.94366 	 80.2295 	 
C 	 21.837 	 6.77338 	 81.1793 	 
H 	 22.5321 	 6.99489 	 80.4157 	 
H 	 22.3929 	 7.09191 	 82.0694 	 
H 	 20.8597 	 7.31771 	 81.2047 	 
H 	 23.8989 	 1.68808 	 86.8495 	 
H 	 22.6917 	 0.696038 	 78.6781 	 
