34

S 	 1.75127 	 -24.7823 	 61.5712 	 
C 	 0.954105 	 -26.3109 	 61.9812 	 
C 	 0.9696 	 -27.1844 	 60.9177 	 
C 	 1.51925 	 -26.6002 	 59.7141 	 
C 	 1.88585 	 -25.2358 	 59.8751 	 
H 	 1.65554 	 -27.0981 	 58.7689 	 
C 	 0.446931 	 -28.5769 	 60.915 	 
H 	 -0.145246 	 -28.6242 	 59.9921 	 
H 	 -0.317936 	 -28.6604 	 61.7215 	 
C 	 1.53475 	 -29.6849 	 60.9927 	 
H 	 0.995104 	 -30.5801 	 60.8996 	 
H 	 2.26229 	 -29.557 	 60.0822 	 
C 	 2.37442 	 -29.6795 	 62.2726 	 
H 	 2.88778 	 -28.7458 	 62.4755 	 
H 	 1.69695 	 -29.9244 	 63.0971 	 
H 	 3.17925 	 -30.3228 	 62.3043 	 
S 	 1.39587 	 -24.0263 	 57.5449 	 
C 	 2.5898 	 -23.0571 	 56.7359 	 
C 	 3.76534 	 -22.9351 	 57.5173 	 
C 	 3.62112 	 -23.7026 	 58.7086 	 
C 	 2.40067 	 -24.3846 	 58.8207 	 
H 	 4.62188 	 -22.3152 	 57.1354 	 
C 	 4.68595 	 -23.768 	 59.8321 	 
H 	 4.30554 	 -24.2374 	 60.6878 	 
H 	 4.9395 	 -22.7746 	 60.0965 	 
C 	 5.96746 	 -24.4376 	 59.3794 	 
H 	 6.7659 	 -24.3346 	 60.1693 	 
H 	 6.32243 	 -23.7928 	 58.5444 	 
C 	 5.87397 	 -25.9002 	 58.8464 	 
H 	 6.79502 	 -26.2674 	 58.4269 	 
H 	 5.09461 	 -25.8019 	 58.0305 	 
H 	 5.43323 	 -26.6023 	 59.5163 	 
H 	 0.609798 	 -26.6038 	 62.9967 	 
H 	 2.31116 	 -22.6049 	 55.7417 	 
