34

S 	 -84.4231 	 52.4422 	 139.5 	 
C 	 -84.1469 	 51.2786 	 140.748 	 
C 	 -83.0209 	 50.5046 	 140.428 	 
C 	 -82.5513 	 50.7993 	 139.133 	 
C 	 -83.1994 	 51.7874 	 138.468 	 
H 	 -81.6735 	 50.3948 	 138.672 	 
C 	 -82.4291 	 49.46 	 141.32 	 
H 	 -83.2486 	 48.8349 	 141.754 	 
H 	 -82.2255 	 50.0047 	 142.27 	 
C 	 -81.225 	 48.6231 	 140.811 	 
H 	 -80.4414 	 49.2521 	 140.281 	 
H 	 -80.5895 	 48.2796 	 141.612 	 
C 	 -81.5467 	 47.3761 	 139.957 	 
H 	 -81.9519 	 46.6151 	 140.573 	 
H 	 -82.384 	 47.5263 	 139.228 	 
H 	 -80.6508 	 46.9732 	 139.381 	 
S 	 -82.9218 	 54.3518 	 137.527 	 
C 	 -81.8056 	 54.5619 	 136.156 	 
C 	 -81.3764 	 53.385 	 135.692 	 
C 	 -82.0006 	 52.2401 	 136.251 	 
C 	 -82.8018 	 52.5923 	 137.314 	 
H 	 -80.674 	 53.3658 	 134.867 	 
C 	 -81.6396 	 50.8465 	 135.809 	 
H 	 -82.301 	 50.6927 	 134.964 	 
H 	 -82.1369 	 50.2157 	 136.56 	 
C 	 -80.1702 	 50.4474 	 135.616 	 
H 	 -79.7401 	 51.187 	 134.918 	 
H 	 -80.039 	 49.5183 	 135.064 	 
C 	 -79.2529 	 50.4979 	 136.814 	 
H 	 -79.5765 	 49.6487 	 137.417 	 
H 	 -79.183 	 51.4265 	 137.402 	 
H 	 -78.2206 	 50.2703 	 136.608 	 
H 	 -84.5929 	 51.2886 	 141.722 	 
H 	 -81.4621 	 55.5244 	 135.715 	 
