34

S 	 -1.28905 	 79.119 	 49.1042 	 
C 	 -0.812608 	 80.816 	 49.2312 	 
C 	 0.29828 	 81.0055 	 48.3658 	 
C 	 0.758236 	 79.8266 	 47.7239 	 
C 	 0.0131366 	 78.7106 	 48.0258 	 
H 	 1.4419 	 79.7525 	 46.9604 	 
C 	 0.850923 	 82.3674 	 47.9691 	 
H 	 0.126811 	 83.0179 	 48.3825 	 
H 	 0.767033 	 82.3329 	 46.8476 	 
C 	 2.28495 	 82.545 	 48.3715 	 
H 	 2.38466 	 82.3235 	 49.467 	 
H 	 2.86302 	 81.7751 	 47.8472 	 
C 	 2.8344 	 83.9549 	 48.0908 	 
H 	 2.14458 	 84.7242 	 48.5673 	 
H 	 3.7447 	 83.947 	 48.6791 	 
H 	 3.09292 	 84.1265 	 47.024 	 
S 	 1.70267 	 77.0524 	 46.6436 	 
C 	 1.14712 	 75.6184 	 45.9883 	 
C 	 -0.0261095 	 75.1738 	 46.5465 	 
C 	 -0.639014 	 76.1448 	 47.3886 	 
C 	 0.117092 	 77.3942 	 47.3918 	 
H 	 -0.397067 	 74.13 	 46.3273 	 
C 	 -1.96936 	 75.9588 	 47.9865 	 
H 	 -2.466 	 75.1857 	 47.3841 	 
H 	 -2.64512 	 76.8351 	 47.8393 	 
C 	 -1.86828 	 75.5341 	 49.4666 	 
H 	 -1.35948 	 76.293 	 50.0211 	 
H 	 -1.34297 	 74.5298 	 49.5672 	 
C 	 -3.1203 	 75.1875 	 50.1756 	 
H 	 -3.74286 	 75.9237 	 50.6129 	 
H 	 -2.70581 	 74.61 	 51.0578 	 
H 	 -3.81896 	 74.5186 	 49.7309 	 
H 	 -1.33905 	 81.5603 	 49.8544 	 
H 	 1.74647 	 75.0513 	 45.2685 	 
