34

S 	 -112.395 	 54.6874 	 114.984 	 
C 	 -111.284 	 53.3611 	 114.771 	 
C 	 -110.098 	 53.7162 	 115.34 	 
C 	 -110.071 	 55.0044 	 115.977 	 
C 	 -111.374 	 55.4974 	 116.143 	 
H 	 -109.214 	 55.4133 	 116.481 	 
C 	 -108.884 	 52.886 	 115.241 	 
H 	 -107.973 	 53.5249 	 114.984 	 
H 	 -108.941 	 52.1027 	 114.484 	 
C 	 -108.398 	 52.2604 	 116.595 	 
H 	 -107.6 	 51.5127 	 116.432 	 
H 	 -107.863 	 53.0977 	 117.139 	 
C 	 -109.516 	 51.5819 	 117.447 	 
H 	 -110.295 	 52.2898 	 117.531 	 
H 	 -109.936 	 50.7089 	 116.973 	 
H 	 -109.264 	 51.2922 	 118.489 	 
S 	 -111.993 	 58.1818 	 116.332 	 
C 	 -112.717 	 58.7873 	 117.771 	 
C 	 -112.833 	 57.7292 	 118.714 	 
C 	 -112.301 	 56.4885 	 118.267 	 
C 	 -111.861 	 56.574 	 116.957 	 
H 	 -113.333 	 57.9897 	 119.703 	 
C 	 -112.282 	 55.2598 	 119.135 	 
H 	 -112.469 	 54.4241 	 118.376 	 
H 	 -113.088 	 55.1485 	 119.846 	 
C 	 -110.869 	 55.0007 	 119.667 	 
H 	 -110.221 	 54.8929 	 118.763 	 
H 	 -110.858 	 54.0274 	 120.126 	 
C 	 -110.128 	 56.0156 	 120.558 	 
H 	 -110.11 	 56.9265 	 119.967 	 
H 	 -109.073 	 55.7177 	 120.858 	 
H 	 -110.795 	 56.2196 	 121.434 	 
H 	 -111.453 	 52.4791 	 114.136 	 
H 	 -113.095 	 59.7558 	 117.884 	 
