34

S 	 -38.2383 	 43.3887 	 95.154 	 
C 	 -39.7597 	 44.2026 	 94.8461 	 
C 	 -40.8229 	 43.3554 	 94.721 	 
C 	 -40.4357 	 41.9911 	 94.8137 	 
C 	 -39.0997 	 41.8003 	 95.1212 	 
H 	 -41.1165 	 41.1853 	 94.6056 	 
C 	 -42.2264 	 43.7278 	 94.4257 	 
H 	 -42.3531 	 44.7517 	 94.2073 	 
H 	 -42.8578 	 43.6017 	 95.3227 	 
C 	 -42.8337 	 43.0179 	 93.1988 	 
H 	 -42.2171 	 43.27 	 92.33 	 
H 	 -42.6901 	 41.9457 	 93.2193 	 
C 	 -44.3667 	 43.3596 	 92.9032 	 
H 	 -44.6172 	 43.0676 	 91.8783 	 
H 	 -45.0619 	 42.7088 	 93.501 	 
H 	 -44.6913 	 44.4142 	 92.9366 	 
S 	 -36.7873 	 40.5387 	 96.1365 	 
C 	 -36.5534 	 38.8013 	 95.9155 	 
C 	 -37.7133 	 38.3162 	 95.3974 	 
C 	 -38.7056 	 39.2346 	 95.0245 	 
C 	 -38.4173 	 40.5361 	 95.4333 	 
H 	 -37.7764 	 37.269 	 95.1839 	 
C 	 -39.9713 	 38.7503 	 94.419 	 
H 	 -39.7409 	 37.7875 	 94.1005 	 
H 	 -40.1425 	 39.3465 	 93.5455 	 
C 	 -41.1672 	 38.6507 	 95.3645 	 
H 	 -41.2691 	 39.5754 	 95.8676 	 
H 	 -40.9457 	 37.8784 	 96.1959 	 
C 	 -42.4915 	 38.3063 	 94.7405 	 
H 	 -42.8361 	 39.2285 	 94.4373 	 
H 	 -43.2591 	 37.8149 	 95.3993 	 
H 	 -42.3143 	 37.6927 	 93.9395 	 
H 	 -39.8979 	 45.1998 	 94.6433 	 
H 	 -35.6934 	 38.2354 	 96.2422 	 
