34

S 	 -30.5453 	 72.1506 	 158.382 	 
C 	 -29.2341 	 72.8166 	 159.251 	 
C 	 -29.6367 	 73.2956 	 160.453 	 
C 	 -31.0403 	 73.0624 	 160.716 	 
C 	 -31.6642 	 72.3507 	 159.707 	 
H 	 -31.558 	 73.3403 	 161.615 	 
C 	 -28.7432 	 73.9045 	 161.525 	 
H 	 -29.252 	 73.7808 	 162.504 	 
H 	 -28.5632 	 75.0018 	 161.375 	 
C 	 -27.3472 	 73.2298 	 161.52 	 
H 	 -27.4682 	 72.1553 	 161.399 	 
H 	 -26.7077 	 73.5538 	 160.654 	 
C 	 -26.4807 	 73.6055 	 162.668 	 
H 	 -25.4111 	 73.3401 	 162.605 	 
H 	 -26.387 	 74.7548 	 162.666 	 
H 	 -26.8217 	 73.2587 	 163.65 	 
S 	 -33.4958 	 70.6232 	 160.716 	 
C 	 -35.2277 	 70.8759 	 160.325 	 
C 	 -35.3999 	 71.8096 	 159.285 	 
C 	 -34.0962 	 72.2313 	 158.759 	 
C 	 -33.0275 	 71.889 	 159.604 	 
H 	 -36.2704 	 72.0506 	 158.775 	 
C 	 -33.9059 	 73.1206 	 157.63 	 
H 	 -33.0744 	 73.769 	 157.679 	 
H 	 -34.6963 	 73.8693 	 157.714 	 
C 	 -33.9766 	 72.4346 	 156.221 	 
H 	 -33.8075 	 73.196 	 155.438 	 
H 	 -35.0227 	 72.0214 	 156.178 	 
C 	 -32.9563 	 71.2355 	 156.193 	 
H 	 -31.9624 	 71.6874 	 156.352 	 
H 	 -32.9804 	 70.7319 	 155.194 	 
H 	 -33.1291 	 70.4962 	 156.948 	 
H 	 -28.2747 	 72.9754 	 158.846 	 
H 	 -35.9795 	 70.3334 	 160.715 	 
