34

S 	 49.1579 	 20.7342 	 81.4758 	 
C 	 49.135 	 21.4044 	 83.0695 	 
C 	 49.6944 	 20.572 	 84.0279 	 
C 	 50.1879 	 19.3811 	 83.4471 	 
C 	 50.1256 	 19.3558 	 82.0413 	 
H 	 50.5127 	 18.5558 	 84.0738 	 
C 	 49.7203 	 20.8001 	 85.5258 	 
H 	 50.2149 	 19.8869 	 85.9509 	 
H 	 48.6888 	 20.7587 	 85.946 	 
C 	 50.6054 	 21.9761 	 86.1129 	 
H 	 50.1568 	 22.9839 	 85.9346 	 
H 	 50.6236 	 21.8497 	 87.2147 	 
C 	 52.0108 	 21.8579 	 85.4942 	 
H 	 52.4835 	 22.7553 	 85.8171 	 
H 	 52.4695 	 20.9808 	 86.0458 	 
H 	 52.052 	 21.7684 	 84.3853 	 
S 	 49.2015 	 17.9294 	 79.9768 	 
C 	 50.0688 	 16.6014 	 79.3793 	 
C 	 51.2951 	 16.4718 	 79.9956 	 
C 	 51.4387 	 17.3119 	 81.1248 	 
C 	 50.4055 	 18.2057 	 81.2561 	 
H 	 52.1366 	 15.7836 	 79.6688 	 
C 	 52.7972 	 17.4414 	 81.8061 	 
H 	 53.4552 	 16.6982 	 81.3768 	 
H 	 52.4437 	 17.0625 	 82.8106 	 
C 	 53.5421 	 18.811 	 82.0218 	 
H 	 54.4868 	 18.5308 	 82.4954 	 
H 	 53.092 	 19.4214 	 82.8814 	 
C 	 53.7456 	 19.7379 	 80.8699 	 
H 	 54.4603 	 19.2415 	 80.1826 	 
H 	 54.099 	 20.7545 	 81.2167 	 
H 	 52.7887 	 19.8114 	 80.3969 	 
H 	 48.757 	 22.3687 	 83.1475 	 
H 	 49.7058 	 15.9823 	 78.5613 	 
