34

S 	 -34.1679 	 55.6816 	 108.893 	 
C 	 -32.4696 	 55.2525 	 108.833 	 
C 	 -31.6615 	 56.0973 	 109.547 	 
C 	 -32.4267 	 56.9571 	 110.349 	 
C 	 -33.7922 	 56.9275 	 110.06 	 
H 	 -32.0312 	 57.7137 	 110.995 	 
C 	 -30.1554 	 56.2384 	 109.228 	 
H 	 -29.9014 	 56.9747 	 108.459 	 
H 	 -29.8111 	 55.2703 	 108.818 	 
C 	 -29.1996 	 56.4778 	 110.437 	 
H 	 -29.4682 	 57.46 	 110.808 	 
H 	 -29.3101 	 55.7139 	 111.191 	 
C 	 -27.7026 	 56.403 	 110.062 	 
H 	 -27.409 	 55.3675 	 110.266 	 
H 	 -27.5263 	 56.6253 	 109.047 	 
H 	 -27.1117 	 57.1486 	 110.564 	 
S 	 -35.5181 	 58.8872 	 109.371 	 
C 	 -36.3426 	 59.8913 	 110.576 	 
C 	 -35.9361 	 59.475 	 111.823 	 
C 	 -35.0314 	 58.3509 	 111.869 	 
C 	 -34.7753 	 57.883 	 110.557 	 
H 	 -36.3325 	 60.0547 	 112.7 	 
C 	 -34.6482 	 57.5748 	 113.166 	 
H 	 -35.0414 	 58.0617 	 114.021 	 
H 	 -33.5391 	 57.6 	 113.242 	 
C 	 -35.151 	 56.0871 	 113.249 	 
H 	 -35.0473 	 55.52 	 112.382 	 
H 	 -36.2573 	 55.9375 	 113.509 	 
C 	 -34.4127 	 55.3659 	 114.338 	 
H 	 -33.4292 	 55.0804 	 114.014 	 
H 	 -34.9465 	 54.424 	 114.601 	 
H 	 -34.1744 	 56.0017 	 115.234 	 
H 	 -32.0742 	 54.6624 	 108.026 	 
H 	 -37.0441 	 60.6943 	 110.529 	 
