34

S 	 55.6799 	 2.19849 	 82.6418 	 
C 	 54.6513 	 3.14713 	 83.6059 	 
C 	 53.8772 	 2.41856 	 84.5008 	 
C 	 54.1589 	 0.990169 	 84.4089 	 
C 	 55.1795 	 0.674813 	 83.4717 	 
H 	 53.634 	 0.220848 	 84.9363 	 
C 	 52.7597 	 2.81378 	 85.4179 	 
H 	 53.0489 	 3.87304 	 85.6246 	 
H 	 52.9531 	 2.17754 	 86.2769 	 
C 	 51.4146 	 2.67241 	 84.8838 	 
H 	 51.4914 	 2.90051 	 83.8355 	 
H 	 51.1329 	 1.62065 	 84.8679 	 
C 	 50.2376 	 3.44478 	 85.5179 	 
H 	 50.2891 	 3.2376 	 86.5604 	 
H 	 50.487 	 4.52157 	 85.4244 	 
H 	 49.2793 	 3.18761 	 85.0941 	 
S 	 55.975 	 -1.66464 	 84.6148 	 
C 	 56.5462 	 -3.03385 	 83.6654 	 
C 	 56.3615 	 -2.72311 	 82.2885 	 
C 	 55.8979 	 -1.38819 	 82.0029 	 
C 	 55.697 	 -0.703087 	 83.1651 	 
H 	 56.4866 	 -3.40377 	 81.5051 	 
C 	 55.5863 	 -0.839291 	 80.622 	 
H 	 54.7708 	 -0.13087 	 80.6646 	 
H 	 55.5012 	 -1.73028 	 79.9343 	 
C 	 56.753 	 -0.0659816 	 79.9692 	 
H 	 57.631 	 -0.70866 	 79.8239 	 
H 	 56.9192 	 0.859857 	 80.562 	 
C 	 56.5085 	 0.368813 	 78.5071 	 
H 	 57.372 	 0.786079 	 78.1067 	 
H 	 55.6725 	 1.1408 	 78.4937 	 
H 	 56.1111 	 -0.392227 	 77.7576 	 
H 	 54.6106 	 4.22486 	 83.6107 	 
H 	 56.8195 	 -3.98706 	 84.0618 	 
