34

S 	 -8.68884 	 56.2515 	 28.6412 	 
C 	 -8.99947 	 54.7081 	 27.9462 	 
C 	 -8.59101 	 53.7074 	 28.8024 	 
C 	 -7.9066 	 54.2201 	 29.9336 	 
C 	 -7.85755 	 55.5871 	 29.9813 	 
H 	 -7.36741 	 53.6459 	 30.7094 	 
C 	 -8.88736 	 52.2808 	 28.5334 	 
H 	 -8.34857 	 51.95 	 27.7133 	 
H 	 -9.87452 	 52.3334 	 28.2206 	 
C 	 -8.82174 	 51.384 	 29.7369 	 
H 	 -7.83179 	 51.5167 	 30.2048 	 
H 	 -9.55351 	 51.6228 	 30.5068 	 
C 	 -9.09396 	 49.9401 	 29.3332 	 
H 	 -9.96589 	 49.8189 	 28.6882 	 
H 	 -8.26668 	 49.5294 	 28.7558 	 
H 	 -9.33762 	 49.3137 	 30.2128 	 
S 	 -6.03942 	 57.5032 	 30.8968 	 
C 	 -5.88313 	 57.7031 	 32.5782 	 
C 	 -6.73008 	 56.8847 	 33.3114 	 
C 	 -7.58623 	 56.1034 	 32.5033 	 
C 	 -7.31372 	 56.2748 	 31.123 	 
H 	 -6.78551 	 56.9586 	 34.3895 	 
C 	 -8.54042 	 55.1053 	 33.1611 	 
H 	 -7.95259 	 54.3325 	 33.5897 	 
H 	 -9.2101 	 54.7401 	 32.3828 	 
C 	 -9.49959 	 55.6635 	 34.23 	 
H 	 -10.1314 	 56.4158 	 33.7865 	 
H 	 -9.01983 	 56.1915 	 35.079 	 
C 	 -10.4358 	 54.5738 	 34.8488 	 
H 	 -9.81829 	 53.7335 	 35.1934 	 
H 	 -11.1538 	 54.0761 	 34.1334 	 
H 	 -11.1814 	 55.0906 	 35.4394 	 
H 	 -9.59824 	 54.5193 	 27.0514 	 
H 	 -5.19317 	 58.4008 	 32.9739 	 
