34

S 	 -45.1134 	 25.0924 	 87.6179 	 
C 	 -46.1129 	 26.142 	 86.717 	 
C 	 -45.3563 	 27.1714 	 86.2323 	 
C 	 -43.9808 	 27.0136 	 86.5368 	 
C 	 -43.6685 	 25.9054 	 87.253 	 
H 	 -43.2354 	 27.7173 	 86.179 	 
C 	 -45.9359 	 28.2855 	 85.4677 	 
H 	 -45.827 	 29.1416 	 86.0664 	 
H 	 -46.9716 	 28.1952 	 85.3899 	 
C 	 -45.3554 	 28.4894 	 84.0398 	 
H 	 -45.7661 	 29.4079 	 83.6997 	 
H 	 -44.3 	 28.6591 	 83.9012 	 
C 	 -46.0176 	 27.4809 	 82.9857 	 
H 	 -47.0674 	 27.7147 	 82.8943 	 
H 	 -45.4866 	 27.5952 	 82.046 	 
H 	 -45.7726 	 26.4826 	 83.43 	 
S 	 -42.2722 	 23.6745 	 87.8855 	 
C 	 -40.5309 	 23.7074 	 87.8753 	 
C 	 -39.9994 	 25.0021 	 87.7693 	 
C 	 -41.0472 	 26.0236 	 87.7382 	 
C 	 -42.3429 	 25.417 	 87.6696 	 
H 	 -38.9733 	 25.0875 	 87.7372 	 
C 	 -40.6424 	 27.471 	 87.5634 	 
H 	 -40.0955 	 27.6597 	 88.5481 	 
H 	 -41.5421 	 28.0184 	 87.5028 	 
C 	 -39.6745 	 27.7595 	 86.4918 	 
H 	 -38.8257 	 27.0316 	 86.4989 	 
H 	 -39.2963 	 28.7905 	 86.7781 	 
C 	 -40.36 	 27.8207 	 85.0801 	 
H 	 -39.7887 	 28.0867 	 84.2197 	 
H 	 -41.124 	 28.6485 	 85.0331 	 
H 	 -40.7749 	 26.8646 	 84.9005 	 
H 	 -47.1913 	 26.1449 	 86.5242 	 
H 	 -39.8319 	 22.8324 	 87.8976 	 
