34

S 	 35.4358 	 4.37591 	 88.9061 	 
C 	 33.9057 	 4.49845 	 88.0183 	 
C 	 33.9583 	 5.46566 	 87.0613 	 
C 	 35.1493 	 6.26956 	 87.229 	 
C 	 36.0894 	 5.78967 	 88.1517 	 
H 	 35.4587 	 7.09649 	 86.615 	 
C 	 32.9756 	 5.68458 	 86.0112 	 
H 	 32.9633 	 6.67843 	 85.5349 	 
H 	 32.065 	 5.61362 	 86.5391 	 
C 	 32.8191 	 4.66874 	 84.9091 	 
H 	 32.7115 	 3.60408 	 85.3516 	 
H 	 31.9108 	 4.85965 	 84.3208 	 
C 	 33.9004 	 4.71942 	 83.8811 	 
H 	 33.7287 	 3.96044 	 83.1488 	 
H 	 33.8969 	 5.71799 	 83.3327 	 
H 	 34.9697 	 4.49164 	 84.3041 	 
S 	 38.6293 	 4.87594 	 88.7623 	 
C 	 39.9282 	 6.02646 	 88.6949 	 
C 	 39.6232 	 7.24941 	 88.2185 	 
C 	 38.194 	 7.36058 	 88.0059 	 
C 	 37.5041 	 6.13209 	 88.2181 	 
H 	 40.2881 	 8.06149 	 88.1103 	 
C 	 37.5184 	 8.6439 	 87.4786 	 
H 	 38.0668 	 9.43831 	 87.9653 	 
H 	 36.5651 	 8.50392 	 88.0017 	 
C 	 37.427 	 8.73534 	 85.9622 	 
H 	 37.1311 	 7.80945 	 85.4568 	 
H 	 38.4619 	 8.89204 	 85.6049 	 
C 	 36.6731 	 9.93507 	 85.4541 	 
H 	 36.5213 	 9.98237 	 84.358 	 
H 	 36.9703 	 10.9067 	 85.874 	 
H 	 35.6765 	 9.72727 	 85.8693 	 
H 	 33.0549 	 3.87456 	 88.1081 	 
H 	 40.9848 	 5.81015 	 88.9883 	 
