34

S 	 55.1946 	 -0.791241 	 85.3884 	 
C 	 55.0166 	 -0.752382 	 83.6021 	 
C 	 56.2567 	 -1.11613 	 82.9822 	 
C 	 57.219 	 -1.70751 	 83.8923 	 
C 	 56.7137 	 -1.70957 	 85.1883 	 
H 	 58.1703 	 -2.18848 	 83.7144 	 
C 	 56.5521 	 -1.05772 	 81.4551 	 
H 	 55.7292 	 -1.4727 	 80.9477 	 
H 	 57.3892 	 -1.74647 	 81.263 	 
C 	 56.8571 	 0.371825 	 80.8932 	 
H 	 55.9162 	 0.973878 	 80.8418 	 
H 	 57.3923 	 0.93161 	 81.6394 	 
C 	 57.57 	 0.209011 	 79.5059 	 
H 	 58.0501 	 1.10666 	 79.1283 	 
H 	 58.3345 	 -0.623028 	 79.3968 	 
H 	 56.8034 	 -0.13192 	 78.7904 	 
S 	 56.4588 	 -3.1768 	 87.5147 	 
C 	 57.7726 	 -3.39229 	 88.6263 	 
C 	 58.941 	 -2.77367 	 88.1623 	 
C 	 58.782 	 -2.20123 	 86.8024 	 
C 	 57.4299 	 -2.24781 	 86.3469 	 
H 	 59.9296 	 -2.96114 	 88.6788 	 
C 	 59.9354 	 -1.57736 	 86.0348 	 
H 	 60.7268 	 -1.19013 	 86.6966 	 
H 	 59.6859 	 -0.664849 	 85.6568 	 
C 	 60.7282 	 -2.48435 	 85.0233 	 
H 	 60.2223 	 -2.66198 	 84.0537 	 
H 	 60.7884 	 -3.46458 	 85.4597 	 
C 	 62.188 	 -2.00308 	 84.8536 	 
H 	 62.7009 	 -2.75621 	 84.2925 	 
H 	 62.7356 	 -1.83902 	 85.7857 	 
H 	 62.3573 	 -1.09279 	 84.217 	 
H 	 54.0631 	 -0.434917 	 83.1536 	 
H 	 57.7663 	 -3.98385 	 89.4988 	 
