34

S 	 -7.55643 	 76.9442 	 51.2743 	 
C 	 -5.87682 	 76.723 	 50.6273 	 
C 	 -5.36789 	 75.4411 	 50.9401 	 
C 	 -6.41667 	 74.5841 	 51.4412 	 
C 	 -7.6359 	 75.2055 	 51.7016 	 
H 	 -6.32217 	 73.5529 	 51.648 	 
C 	 -3.95325 	 75.0486 	 50.6009 	 
H 	 -3.59597 	 74.2544 	 51.188 	 
H 	 -3.36468 	 75.9132 	 50.9995 	 
C 	 -3.76531 	 74.7843 	 49.1204 	 
H 	 -4.44067 	 74.0136 	 48.8154 	 
H 	 -4.04358 	 75.612 	 48.5087 	 
C 	 -2.27112 	 74.3926 	 48.8452 	 
H 	 -2.21937 	 73.9001 	 47.941 	 
H 	 -1.58158 	 75.2986 	 48.8286 	 
H 	 -1.70077 	 73.8138 	 49.5304 	 
S 	 -9.56648 	 74.9446 	 53.6992 	 
C 	 -10.9273 	 73.9247 	 53.48 	 
C 	 -10.7616 	 73.1852 	 52.3327 	 
C 	 -9.54971 	 73.5219 	 51.5682 	 
C 	 -8.91218 	 74.5831 	 52.1459 	 
H 	 -11.6348 	 72.5637 	 52.0415 	 
C 	 -9.05771 	 72.9617 	 50.2666 	 
H 	 -8.21249 	 73.4247 	 49.8846 	 
H 	 -9.88944 	 73.3495 	 49.6099 	 
C 	 -8.78294 	 71.4746 	 50.1439 	 
H 	 -8.45752 	 71.3781 	 49.1087 	 
H 	 -9.66919 	 70.9072 	 50.451 	 
C 	 -7.68622 	 71.1095 	 51.0853 	 
H 	 -7.65219 	 69.9677 	 51.1219 	 
H 	 -7.70796 	 71.3439 	 52.1506 	 
H 	 -6.72852 	 71.4443 	 50.6844 	 
H 	 -5.35961 	 77.4951 	 50.1682 	 
H 	 -11.6485 	 73.6062 	 54.1663 	 
