34

S 	 -13.5511 	 40.0589 	 31.7502 	 
C 	 -14.2586 	 39.1056 	 33.0655 	 
C 	 -15.6161 	 39.0398 	 32.9164 	 
C 	 -16.097 	 39.7649 	 31.7418 	 
C 	 -15.1439 	 40.3224 	 30.9725 	 
H 	 -17.1628 	 39.7873 	 31.396 	 
C 	 -16.4874 	 38.417 	 33.9732 	 
H 	 -15.8781 	 37.6672 	 34.4742 	 
H 	 -17.2679 	 37.9039 	 33.4608 	 
C 	 -17.0613 	 39.4483 	 35.0279 	 
H 	 -17.3161 	 38.9242 	 35.8779 	 
H 	 -16.3009 	 40.1521 	 35.2677 	 
C 	 -18.2373 	 40.204 	 34.4345 	 
H 	 -18.6545 	 41.0666 	 34.9585 	 
H 	 -17.9107 	 40.7313 	 33.5088 	 
H 	 -18.9928 	 39.5237 	 34.0517 	 
S 	 -15.5211 	 40.1471 	 28.3172 	 
C 	 -15.6364 	 41.6138 	 27.3871 	 
C 	 -15.56 	 42.6959 	 28.204 	 
C 	 -15.3126 	 42.4061 	 29.5692 	 
C 	 -15.3046 	 41.0546 	 29.7766 	 
H 	 -15.5703 	 43.6828 	 27.7651 	 
C 	 -15.1557 	 43.4943 	 30.6473 	 
H 	 -14.8444 	 44.4263 	 30.1634 	 
H 	 -14.2186 	 43.1588 	 31.194 	 
C 	 -16.2648 	 43.6081 	 31.7289 	 
H 	 -16.1325 	 44.3716 	 32.4739 	 
H 	 -16.1996 	 42.6475 	 32.3018 	 
C 	 -17.5956 	 43.8013 	 30.9721 	 
H 	 -18.4056 	 43.9854 	 31.6586 	 
H 	 -17.9032 	 42.8698 	 30.5404 	 
H 	 -17.6514 	 44.6134 	 30.2298 	 
H 	 -13.7351 	 38.5534 	 33.7749 	 
H 	 -15.7707 	 41.7381 	 26.3157 	 
