34

S 	 58.8953 	 -6.1211 	 88.3825 	 
C 	 59.04 	 -5.79695 	 90.077 	 
C 	 60.2679 	 -5.27181 	 90.4396 	 
C 	 61.0487 	 -4.97204 	 89.2953 	 
C 	 60.5159 	 -5.3967 	 88.1119 	 
H 	 62.0269 	 -4.43959 	 89.2005 	 
C 	 60.6828 	 -4.90919 	 91.9075 	 
H 	 61.7327 	 -5.02074 	 92.0313 	 
H 	 60.1698 	 -5.59144 	 92.5365 	 
C 	 60.3343 	 -3.44117 	 92.3203 	 
H 	 60.7626 	 -3.22072 	 93.2686 	 
H 	 60.806 	 -2.7193 	 91.6255 	 
C 	 58.8418 	 -3.22711 	 92.4645 	 
H 	 58.2331 	 -3.4353 	 91.6092 	 
H 	 58.5382 	 -3.93107 	 93.2598 	 
H 	 58.6856 	 -2.24738 	 92.9749 	 
S 	 61.3793 	 -7.22456 	 86.1062 	 
C 	 62.0248 	 -6.53136 	 84.623 	 
C 	 62.1694 	 -5.10449 	 84.6585 	 
C 	 61.6016 	 -4.53492 	 85.8536 	 
C 	 61.1028 	 -5.51386 	 86.7326 	 
H 	 62.6242 	 -4.5567 	 83.8919 	 
C 	 61.4836 	 -3.01603 	 86.0387 	 
H 	 62.188 	 -2.49221 	 85.3777 	 
H 	 61.9709 	 -2.68072 	 87.0222 	 
C 	 60.0034 	 -2.57232 	 85.9079 	 
H 	 59.5762 	 -3.36782 	 86.5847 	 
H 	 59.4862 	 -2.76011 	 84.9277 	 
C 	 59.8826 	 -1.28686 	 86.6582 	 
H 	 60.2828 	 -1.33536 	 87.6486 	 
H 	 58.8396 	 -0.962792 	 86.7332 	 
H 	 60.3701 	 -0.501089 	 86.1623 	 
H 	 58.283 	 -5.97403 	 90.8316 	 
H 	 62.4187 	 -7.12916 	 83.8158 	 
