34

S 	 44.7074 	 5.01662 	 86.6739 	 
C 	 45.2511 	 6.49967 	 87.4353 	 
C 	 45.7191 	 6.16634 	 88.6604 	 
C 	 45.6937 	 4.76845 	 89.0016 	 
C 	 45.1773 	 3.9833 	 88.0216 	 
H 	 46.0745 	 4.24114 	 89.837 	 
C 	 46.4104 	 7.08635 	 89.5933 	 
H 	 45.8744 	 7.05176 	 90.5388 	 
H 	 46.1329 	 8.11949 	 89.2084 	 
C 	 47.9137 	 7.0095 	 89.7921 	 
H 	 48.1703 	 7.80068 	 90.5326 	 
H 	 48.1031 	 6.00666 	 90.1772 	 
C 	 48.6904 	 7.05694 	 88.534 	 
H 	 48.4501 	 7.98493 	 88.009 	 
H 	 49.7968 	 7.11976 	 88.7218 	 
H 	 48.5188 	 6.1879 	 88.0093 	 
S 	 44.9254 	 1.83849 	 89.8429 	 
C 	 44.4701 	 0.352722 	 89.2114 	 
C 	 44.6965 	 0.207789 	 87.8581 	 
C 	 44.9795 	 1.50974 	 87.225 	 
C 	 45.0698 	 2.52234 	 88.1884 	 
H 	 44.6505 	 -0.750603 	 87.4474 	 
C 	 45.2552 	 1.5724 	 85.7467 	 
H 	 45.7707 	 0.713964 	 85.4394 	 
H 	 45.946 	 2.31013 	 85.6095 	 
C 	 44.0451 	 1.7183 	 84.8033 	 
H 	 43.8554 	 2.75661 	 84.8172 	 
H 	 43.1263 	 1.25801 	 85.2013 	 
C 	 44.3376 	 1.21663 	 83.3216 	 
H 	 45.0353 	 1.8364 	 82.8244 	 
H 	 43.3844 	 1.24886 	 82.8 	 
H 	 44.7934 	 0.229612 	 83.3715 	 
H 	 45.0917 	 7.52493 	 87.1418 	 
H 	 44.2122 	 -0.438837 	 89.8772 	 
