34

S 	 -17.2221 	 52.973 	 60.2363 	 
C 	 -17.9327 	 51.4022 	 59.8443 	 
C 	 -17.6691 	 50.475 	 60.8451 	 
C 	 -17.0512 	 51.1148 	 61.9661 	 
C 	 -16.7662 	 52.4129 	 61.8247 	 
H 	 -16.8226 	 50.6101 	 62.8775 	 
C 	 -17.8311 	 49.0047 	 60.7563 	 
H 	 -18.6798 	 48.7506 	 60.1494 	 
H 	 -18.1252 	 48.6185 	 61.6984 	 
C 	 -16.5357 	 48.2526 	 60.3022 	 
H 	 -16.0806 	 48.6958 	 59.3936 	 
H 	 -15.8279 	 48.3425 	 61.1134 	 
C 	 -16.7294 	 46.7442 	 59.8516 	 
H 	 -17.5399 	 46.5173 	 59.1729 	 
H 	 -15.8538 	 46.3755 	 59.3676 	 
H 	 -16.9418 	 46.1522 	 60.7511 	 
S 	 -14.9541 	 54.5226 	 62.2943 	 
C 	 -14.8137 	 55.1805 	 63.995 	 
C 	 -15.7514 	 54.6364 	 64.8152 	 
C 	 -16.4533 	 53.5051 	 64.2154 	 
C 	 -16.1025 	 53.2715 	 62.8194 	 
H 	 -15.865 	 55.1551 	 65.8118 	 
C 	 -17.5251 	 52.6177 	 64.9264 	 
H 	 -18.2737 	 52.2931 	 64.0859 	 
H 	 -18.1666 	 53.2156 	 65.6239 	 
C 	 -16.825 	 51.4088 	 65.6641 	 
H 	 -16.048 	 50.9589 	 65.0589 	 
H 	 -17.5831 	 50.6617 	 65.7102 	 
C 	 -16.1671 	 51.8149 	 67.0047 	 
H 	 -16.3572 	 52.8791 	 67.291 	 
H 	 -15.1018 	 51.6706 	 66.9237 	 
H 	 -16.4293 	 51.2579 	 67.9204 	 
H 	 -18.3526 	 51.1733 	 58.9044 	 
H 	 -14.3212 	 56.1656 	 64.2758 	 
