34

S 	 -105.411 	 40.6104 	 126.876 	 
C 	 -104.005 	 40.6245 	 125.789 	 
C 	 -103.376 	 41.8874 	 125.754 	 
C 	 -104.068 	 42.8898 	 126.493 	 
C 	 -105.069 	 42.2842 	 127.265 	 
H 	 -103.703 	 43.91 	 126.733 	 
C 	 -102.211 	 42.2396 	 124.953 	 
H 	 -102.226 	 43.1984 	 124.395 	 
H 	 -102.271 	 41.5268 	 124.142 	 
C 	 -100.885 	 42.1378 	 125.742 	 
H 	 -100.976 	 41.3822 	 126.446 	 
H 	 -100.166 	 41.8502 	 124.98 	 
C 	 -100.594 	 43.4962 	 126.357 	 
H 	 -100.736 	 44.3976 	 125.685 	 
H 	 -101.245 	 43.6552 	 127.262 	 
H 	 -99.5853 	 43.4538 	 126.79 	 
S 	 -105.521 	 42.4439 	 129.976 	 
C 	 -106.433 	 43.8439 	 130.552 	 
C 	 -107.017 	 44.6374 	 129.54 	 
C 	 -106.478 	 44.1738 	 128.281 	 
C 	 -105.806 	 42.9728 	 128.329 	 
H 	 -107.419 	 45.6037 	 129.83 	 
C 	 -106.897 	 44.9686 	 126.996 	 
H 	 -107.948 	 45.1002 	 126.897 	 
H 	 -106.551 	 44.4413 	 126.111 	 
C 	 -106.35 	 46.4499 	 126.921 	 
H 	 -105.324 	 46.2719 	 126.876 	 
H 	 -106.605 	 46.8752 	 127.884 	 
C 	 -106.947 	 47.3754 	 125.898 	 
H 	 -108.005 	 47.6939 	 126.045 	 
H 	 -106.835 	 46.8301 	 125.001 	 
H 	 -106.54 	 48.3044 	 125.657 	 
H 	 -103.523 	 39.7695 	 125.295 	 
H 	 -106.614 	 44.0925 	 131.605 	 
