34

S 	 -68.9585 	 46.5178 	 134.502 	 
C 	 -69.2531 	 47.3509 	 133.006 	 
C 	 -70.3142 	 46.7892 	 132.302 	 
C 	 -70.9495 	 45.8203 	 133.089 	 
C 	 -70.4136 	 45.6208 	 134.341 	 
H 	 -71.8716 	 45.1744 	 132.848 	 
C 	 -70.5691 	 47.1278 	 130.93 	 
H 	 -69.7304 	 47.5834 	 130.488 	 
H 	 -71.3529 	 47.8635 	 130.956 	 
C 	 -70.9674 	 45.9068 	 130.108 	 
H 	 -70.4162 	 45.0089 	 130.37 	 
H 	 -71.8852 	 45.5216 	 130.409 	 
C 	 -71.0539 	 46.1308 	 128.631 	 
H 	 -71.3602 	 45.2356 	 128.11 	 
H 	 -71.7679 	 46.9382 	 128.328 	 
H 	 -70.0901 	 46.38 	 128.303 	 
S 	 -72.66 	 44.7695 	 135.694 	 
C 	 -72.6106 	 43.2054 	 136.548 	 
C 	 -71.299 	 42.8308 	 136.713 	 
C 	 -70.3042 	 43.5992 	 135.965 	 
C 	 -70.8808 	 44.613 	 135.305 	 
H 	 -71.0533 	 42.0001 	 137.309 	 
C 	 -68.8273 	 43.158 	 135.848 	 
H 	 -68.4987 	 43.3005 	 134.797 	 
H 	 -68.7344 	 42.0404 	 136.029 	 
C 	 -67.902 	 43.8774 	 136.72 	 
H 	 -67.8425 	 43.4727 	 137.748 	 
H 	 -68.2521 	 44.9345 	 136.784 	 
C 	 -66.4794 	 43.8769 	 136.089 	 
H 	 -66.4318 	 44.176 	 135.066 	 
H 	 -66.0829 	 42.876 	 136.023 	 
H 	 -65.859 	 44.4257 	 136.765 	 
H 	 -68.6573 	 48.1203 	 132.532 	 
H 	 -73.3335 	 42.6449 	 137.086 	 
