34

S 	 -82.0845 	 34.2079 	 135.807 	 
C 	 -80.4123 	 33.8969 	 136.369 	 
C 	 -79.5221 	 34.4053 	 135.459 	 
C 	 -80.1421 	 35.2094 	 134.393 	 
C 	 -81.5449 	 35.2944 	 134.49 	 
H 	 -79.6259 	 35.6675 	 133.605 	 
C 	 -78.0745 	 34.4244 	 135.716 	 
H 	 -77.7479 	 34.8999 	 134.771 	 
H 	 -77.6529 	 33.443 	 135.725 	 
C 	 -77.5655 	 35.2023 	 136.987 	 
H 	 -78.0001 	 34.6108 	 137.769 	 
H 	 -76.4512 	 35.1141 	 137.009 	 
C 	 -77.9085 	 36.7288 	 137.053 	 
H 	 -79.0395 	 36.9227 	 136.973 	 
H 	 -77.6933 	 37.0537 	 138.088 	 
H 	 -77.3608 	 37.3004 	 136.289 	 
S 	 -83.7961 	 34.9315 	 132.851 	 
C 	 -84.2736 	 36.3056 	 131.807 	 
C 	 -83.5745 	 37.4735 	 132.073 	 
C 	 -82.4916 	 37.2704 	 133.012 	 
C 	 -82.4895 	 35.9562 	 133.548 	 
H 	 -83.8489 	 38.4165 	 131.597 	 
C 	 -81.5564 	 38.3207 	 133.49 	 
H 	 -81.429 	 39.0445 	 132.653 	 
H 	 -80.5414 	 37.8533 	 133.555 	 
C 	 -81.9398 	 39.0883 	 134.796 	 
H 	 -81.097 	 39.6033 	 135.181 	 
H 	 -82.1041 	 38.3316 	 135.56 	 
C 	 -83.0519 	 40.1368 	 134.754 	 
H 	 -83.9121 	 39.504 	 134.554 	 
H 	 -82.9526 	 40.9341 	 133.946 	 
H 	 -83.3128 	 40.6759 	 135.651 	 
H 	 -80.1299 	 33.5294 	 137.331 	 
H 	 -85.1235 	 36.3114 	 131.107 	 
