34

S 	 -0.579024 	 -16.9976 	 82.8942 	 
C 	 -2.05808 	 -16.7856 	 81.9333 	 
C 	 -2.36441 	 -15.4556 	 81.8721 	 
C 	 -1.35567 	 -14.6172 	 82.3679 	 
C 	 -0.327982 	 -15.2886 	 83.0525 	 
H 	 -1.36725 	 -13.5859 	 82.2243 	 
C 	 -3.55473 	 -14.9822 	 81.1285 	 
H 	 -4.23156 	 -14.42 	 81.771 	 
H 	 -4.1199 	 -15.9265 	 80.7799 	 
C 	 -3.11393 	 -14.417 	 79.7836 	 
H 	 -3.92567 	 -13.8506 	 79.2846 	 
H 	 -2.31143 	 -13.7088 	 79.9492 	 
C 	 -2.49114 	 -15.4123 	 78.7895 	 
H 	 -3.28352 	 -16.0553 	 78.3414 	 
H 	 -2.12641 	 -14.8097 	 77.9477 	 
H 	 -1.75819 	 -16.1298 	 79.2257 	 
S 	 2.21242 	 -14.9584 	 82.3292 	 
C 	 3.26865 	 -13.7985 	 83.2578 	 
C 	 2.58291 	 -13.27 	 84.275 	 
C 	 1.24988 	 -13.7603 	 84.4076 	 
C 	 0.935575 	 -14.7046 	 83.4743 	 
H 	 3.10446 	 -12.586 	 84.9076 	 
C 	 0.405838 	 -13.1942 	 85.5709 	 
H 	 0.935442 	 -13.476 	 86.5103 	 
H 	 -0.505404 	 -13.7595 	 85.5505 	 
C 	 0.14859 	 -11.6759 	 85.4661 	 
H 	 0.932028 	 -11.0513 	 85.9227 	 
H 	 -0.64316 	 -11.3599 	 86.1181 	 
C 	 -0.324148 	 -11.2337 	 84.0973 	 
H 	 0.394646 	 -11.5569 	 83.3457 	 
H 	 -0.35372 	 -10.1677 	 83.9864 	 
H 	 -1.29452 	 -11.6906 	 83.8706 	 
H 	 -2.67953 	 -17.5189 	 81.421 	 
H 	 4.36294 	 -13.7073 	 83.0074 	 
