34

S 	 -21.9928 	 45.8423 	 56.1067 	 
C 	 -22.5414 	 47.2365 	 56.9491 	 
C 	 -22.7969 	 46.907 	 58.2724 	 
C 	 -22.4638 	 45.5733 	 58.6389 	 
C 	 -22.3117 	 44.8049 	 57.4924 	 
H 	 -22.6071 	 45.0853 	 59.6115 	 
C 	 -23.3737 	 47.9721 	 59.2799 	 
H 	 -22.903 	 48.9786 	 59.3837 	 
H 	 -23.1234 	 47.554 	 60.2222 	 
C 	 -24.8716 	 48.1732 	 59.2298 	 
H 	 -25.3076 	 48.916 	 59.8206 	 
H 	 -25.1501 	 48.5196 	 58.2712 	 
C 	 -25.6217 	 46.9325 	 59.5617 	 
H 	 -25.6303 	 46.5294 	 60.5536 	 
H 	 -26.6313 	 47.1373 	 59.2676 	 
H 	 -25.3731 	 46.1157 	 58.9196 	 
S 	 -20.9751 	 42.4753 	 58.2266 	 
C 	 -21.6521 	 40.9255 	 57.8316 	 
C 	 -22.8339 	 41.1048 	 57.2379 	 
C 	 -23.1826 	 42.4426 	 56.877 	 
C 	 -22.2865 	 43.33 	 57.4241 	 
H 	 -23.5773 	 40.3363 	 57.1164 	 
C 	 -24.4933 	 42.8924 	 56.2382 	 
H 	 -24.8063 	 42.1477 	 55.3869 	 
H 	 -24.1456 	 43.7387 	 55.8017 	 
C 	 -25.7145 	 43.2043 	 57.1508 	 
H 	 -26.6179 	 42.8439 	 56.5979 	 
H 	 -25.8395 	 44.3112 	 57.3921 	 
C 	 -25.7173 	 42.5699 	 58.5376 	 
H 	 -26.3033 	 43.1511 	 59.2915 	 
H 	 -24.7149 	 42.4796 	 59.0001 	 
H 	 -26.0427 	 41.5074 	 58.5553 	 
H 	 -22.5058 	 48.2579 	 56.5348 	 
H 	 -21.367 	 39.9584 	 58.2967 	 
