34

S 	 -34.2232 	 69.4437 	 110.481 	 
C 	 -34.5474 	 68.132 	 109.372 	 
C 	 -33.7189 	 68.0996 	 108.267 	 
C 	 -32.6782 	 69.0688 	 108.439 	 
C 	 -32.9021 	 69.9622 	 109.496 	 
H 	 -31.8596 	 69.0204 	 107.71 	 
C 	 -33.5379 	 67.0288 	 107.224 	 
H 	 -34.3384 	 66.2407 	 107.371 	 
H 	 -32.5889 	 66.4274 	 107.297 	 
C 	 -33.7872 	 67.3935 	 105.723 	 
H 	 -34.8 	 67.7291 	 105.706 	 
H 	 -33.272 	 68.3452 	 105.6 	 
C 	 -33.3914 	 66.328 	 104.793 	 
H 	 -33.9104 	 65.359 	 104.865 	 
H 	 -33.487 	 66.6774 	 103.766 	 
H 	 -32.3199 	 66.1211 	 104.867 	 
S 	 -31.5354 	 71.1587 	 111.621 	 
C 	 -30.3807 	 72.3761 	 111.276 	 
C 	 -30.1897 	 72.6279 	 109.924 	 
C 	 -31.1395 	 71.8442 	 109.151 	 
C 	 -31.918 	 70.9775 	 109.909 	 
H 	 -29.6011 	 73.5337 	 109.652 	 
C 	 -31.1867 	 72.0102 	 107.648 	 
H 	 -30.9944 	 71.0406 	 107.196 	 
H 	 -30.3832 	 72.7166 	 107.25 	 
C 	 -32.5246 	 72.4046 	 107.026 	 
H 	 -32.9916 	 73.3429 	 107.426 	 
H 	 -33.2028 	 71.653 	 107.27 	 
C 	 -32.5028 	 72.4276 	 105.484 	 
H 	 -32.1388 	 71.4052 	 105.154 	 
H 	 -31.9936 	 73.2124 	 104.953 	 
H 	 -33.538 	 72.5678 	 105.137 	 
H 	 -35.4394 	 67.4176 	 109.56 	 
H 	 -29.9355 	 73.0403 	 112.074 	 
