34

S 	 -5.38552 	 -14.3886 	 80.5792 	 
C 	 -4.77055 	 -14.5458 	 82.1963 	 
C 	 -5.1734 	 -13.5157 	 83.0155 	 
C 	 -6.02905 	 -12.6339 	 82.3222 	 
C 	 -6.18919 	 -12.9237 	 81.0074 	 
H 	 -6.53333 	 -11.8136 	 82.7792 	 
C 	 -4.93751 	 -13.4058 	 84.5149 	 
H 	 -4.7471 	 -12.3716 	 84.8317 	 
H 	 -4.09895 	 -14.0305 	 84.7381 	 
C 	 -6.14371 	 -13.7815 	 85.4091 	 
H 	 -6.83569 	 -12.9801 	 85.5647 	 
H 	 -6.74643 	 -14.4944 	 84.7912 	 
C 	 -5.70178 	 -14.3518 	 86.7001 	 
H 	 -4.76638 	 -14.899 	 86.7319 	 
H 	 -5.49008 	 -13.5317 	 87.4028 	 
H 	 -6.52811 	 -14.9386 	 87.0442 	 
S 	 -6.17908 	 -10.6682 	 79.5478 	 
C 	 -7.30054 	 -10.5951 	 78.1919 	 
C 	 -8.22914 	 -11.6277 	 78.1834 	 
C 	 -8.04875 	 -12.5091 	 79.3018 	 
C 	 -6.94198 	 -12.145 	 80.0984 	 
H 	 -9.01785 	 -11.5846 	 77.4036 	 
C 	 -8.956 	 -13.6824 	 79.5799 	 
H 	 -8.33672 	 -14.5362 	 79.4334 	 
H 	 -9.69929 	 -13.7432 	 78.7283 	 
C 	 -9.56236 	 -13.8544 	 80.9327 	 
H 	 -9.80942 	 -12.8058 	 81.256 	 
H 	 -8.87182 	 -14.3193 	 81.6396 	 
C 	 -10.833 	 -14.7368 	 80.917 	 
H 	 -11.5304 	 -14.4662 	 81.7388 	 
H 	 -10.4081 	 -15.7036 	 81.1861 	 
H 	 -11.3333 	 -14.6978 	 79.8934 	 
H 	 -4.11922 	 -15.3744 	 82.3572 	 
H 	 -7.56704 	 -9.69483 	 77.6376 	 
