34

S 	 10.0544 	 24.7913 	 45.9567 	 
C 	 9.58323 	 23.1458 	 46.3958 	 
C 	 10.34 	 22.2563 	 45.6418 	 
C 	 11.3648 	 22.88 	 44.818 	 
C 	 11.3347 	 24.2391 	 44.84 	 
H 	 12.0659 	 22.2893 	 44.1939 	 
C 	 10.3553 	 20.764 	 45.7578 	 
H 	 10.9089 	 20.2614 	 44.9342 	 
H 	 9.30543 	 20.6221 	 45.6249 	 
C 	 10.7354 	 20.1526 	 47.0932 	 
H 	 10.0814 	 20.597 	 47.8813 	 
H 	 10.609 	 19.0809 	 46.9846 	 
C 	 12.2292 	 20.4301 	 47.4512 	 
H 	 12.9715 	 20.1977 	 46.6146 	 
H 	 12.3969 	 21.5495 	 47.72 	 
H 	 12.5058 	 19.8325 	 48.2716 	 
S 	 13.4963 	 26.0484 	 44.9539 	 
C 	 13.7328 	 27.0496 	 43.5773 	 
C 	 13.0197 	 26.5786 	 42.4928 	 
C 	 12.1299 	 25.4969 	 42.7577 	 
C 	 12.1275 	 25.2077 	 44.1055 	 
H 	 13.2158 	 27.0831 	 41.5346 	 
C 	 11.3782 	 24.6865 	 41.7398 	 
H 	 11.7009 	 23.624 	 41.8777 	 
H 	 11.7469 	 24.9902 	 40.753 	 
C 	 9.79531 	 24.8779 	 41.9523 	 
H 	 9.67814 	 25.9167 	 41.703 	 
H 	 9.4542 	 24.6207 	 42.931 	 
C 	 8.88314 	 24.0856 	 41.0327 	 
H 	 7.79728 	 24.1638 	 41.1747 	 
H 	 9.13695 	 23.052 	 41.2595 	 
H 	 9.0775 	 24.2433 	 39.9832 	 
H 	 8.85941 	 22.8737 	 47.118 	 
H 	 14.4863 	 27.8213 	 43.5153 	 
