34

S 	 -11.6466 	 63.9043 	 54.64 	 
C 	 -11.6827 	 62.6437 	 53.4851 	 
C 	 -10.5404 	 61.9354 	 53.4049 	 
C 	 -9.52001 	 62.4673 	 54.1782 	 
C 	 -9.92725 	 63.4932 	 54.9477 	 
H 	 -8.45398 	 62.1716 	 54.2067 	 
C 	 -10.3944 	 60.655 	 52.6038 	 
H 	 -11.0595 	 59.9245 	 52.9968 	 
H 	 -9.50657 	 60.1341 	 52.9177 	 
C 	 -10.6005 	 60.7479 	 51.0709 	 
H 	 -11.4875 	 61.3526 	 50.809 	 
H 	 -9.66446 	 61.1629 	 50.5932 	 
C 	 -10.9528 	 59.4046 	 50.4497 	 
H 	 -11.6855 	 58.768 	 50.9426 	 
H 	 -11.2515 	 59.5436 	 49.425 	 
H 	 -10.111 	 58.7746 	 50.2575 	 
S 	 -7.33611 	 64.4464 	 55.5768 	 
C 	 -7.0951 	 65.0747 	 57.1502 	 
C 	 -8.18906 	 65.0394 	 57.9114 	 
C 	 -9.36695 	 64.6759 	 57.1843 	 
C 	 -9.05229 	 64.1386 	 55.9292 	 
H 	 -8.11902 	 65.3365 	 58.9454 	 
C 	 -10.6939 	 64.665 	 57.897 	 
H 	 -11.4502 	 65.0889 	 57.2917 	 
H 	 -10.6596 	 65.282 	 58.8034 	 
C 	 -11.1519 	 63.2591 	 58.2107 	 
H 	 -10.3271 	 62.6618 	 58.5134 	 
H 	 -11.5234 	 62.7845 	 57.2865 	 
C 	 -12.3201 	 63.1161 	 59.1844 	 
H 	 -12.5332 	 62.0741 	 59.3439 	 
H 	 -13.2701 	 63.6035 	 58.9053 	 
H 	 -12.0275 	 63.4403 	 60.25 	 
H 	 -12.5548 	 62.3667 	 52.9814 	 
H 	 -6.07996 	 65.108 	 57.5772 	 
