34

S 	 -5.22742 	 74.5079 	 48.4757 	 
C 	 -3.75064 	 75.2766 	 48.8774 	 
C 	 -2.79242 	 74.405 	 49.3475 	 
C 	 -3.44448 	 73.1359 	 49.6421 	 
C 	 -4.76924 	 73.096 	 49.287 	 
H 	 -2.9588 	 72.2328 	 50.1118 	 
C 	 -1.40879 	 74.7884 	 49.7564 	 
H 	 -0.853238 	 73.9206 	 50.0431 	 
H 	 -1.50525 	 75.4113 	 50.7042 	 
C 	 -0.616765 	 75.5262 	 48.6915 	 
H 	 -0.820952 	 75.0555 	 47.656 	 
H 	 -0.94101 	 76.5456 	 48.6101 	 
C 	 0.904715 	 75.6275 	 49.0804 	 
H 	 1.41114 	 76.3517 	 48.4683 	 
H 	 0.929733 	 76.2452 	 49.9766 	 
H 	 1.46708 	 74.7471 	 49.2602 	 
S 	 -7.14254 	 72.4525 	 50.5249 	 
C 	 -7.88635 	 70.881 	 50.2325 	 
C 	 -6.9596 	 70.0189 	 49.6587 	 
C 	 -5.7815 	 70.6264 	 49.1905 	 
C 	 -5.73169 	 71.9772 	 49.6073 	 
H 	 -7.23895 	 69.0101 	 49.6474 	 
C 	 -4.71121 	 69.8619 	 48.3859 	 
H 	 -4.29062 	 69.0324 	 49.0454 	 
H 	 -3.8849 	 70.5346 	 48.3197 	 
C 	 -5.17492 	 69.3701 	 47.0333 	 
H 	 -4.34999 	 68.8404 	 46.5799 	 
H 	 -5.32698 	 70.2938 	 46.4613 	 
C 	 -6.38705 	 68.3878 	 47.0121 	 
H 	 -6.42163 	 67.5082 	 47.6553 	 
H 	 -6.64482 	 68.0534 	 45.9652 	 
H 	 -7.25199 	 69.0017 	 47.2219 	 
H 	 -3.56004 	 76.3229 	 48.7847 	 
H 	 -8.87682 	 70.6376 	 50.4528 	 
