34

S 	 41.498 	 27.3353 	 49.3564 	 
C 	 41.6996 	 28.3362 	 50.8085 	 
C 	 41.2203 	 29.6081 	 50.572 	 
C 	 40.713 	 29.7464 	 49.2503 	 
C 	 40.689 	 28.5642 	 48.4778 	 
H 	 40.2923 	 30.7223 	 48.9166 	 
C 	 41.3023 	 30.7791 	 51.5585 	 
H 	 41.0767 	 30.4293 	 52.5084 	 
H 	 40.4303 	 31.4583 	 51.2627 	 
C 	 42.7036 	 31.3739 	 51.5947 	 
H 	 42.9147 	 31.8942 	 50.6028 	 
H 	 42.722 	 32.1968 	 52.2999 	 
C 	 43.8747 	 30.3851 	 51.9119 	 
H 	 43.813 	 30.0383 	 52.9693 	 
H 	 43.8991 	 29.4641 	 51.307 	 
H 	 44.8469 	 30.8833 	 51.8297 	 
S 	 41.4057 	 27.5066 	 46.045 	 
C 	 40.388 	 27.8631 	 44.6547 	 
C 	 39.18 	 28.4991 	 45.0572 	 
C 	 39.1311 	 28.8719 	 46.457 	 
C 	 40.2718 	 28.3909 	 47.1151 	 
H 	 38.4797 	 28.6868 	 44.3031 	 
C 	 38.0138 	 29.6783 	 47.0646 	 
H 	 37.3264 	 30.2072 	 46.2751 	 
H 	 38.5429 	 30.4911 	 47.5773 	 
C 	 37.2428 	 28.9007 	 48.1131 	 
H 	 36.6895 	 29.5651 	 48.7055 	 
H 	 37.833 	 28.4215 	 48.8918 	 
C 	 36.3775 	 27.7401 	 47.55 	 
H 	 36.0307 	 27.018 	 48.2538 	 
H 	 36.895 	 27.0833 	 46.8378 	 
H 	 35.4138 	 28.1151 	 47.1645 	 
H 	 42.0227 	 27.9531 	 51.7831 	 
H 	 40.524 	 27.5842 	 43.6242 	 
