34

S 	 -0.075438 	 -10.751 	 81.351 	 
C 	 -0.267641 	 -12.4232 	 81.9173 	 
C 	 -1.57519 	 -12.7944 	 81.6533 	 
C 	 -2.42341 	 -11.8073 	 81.1114 	 
C 	 -1.77003 	 -10.6114 	 80.9735 	 
H 	 -3.41502 	 -11.9813 	 80.7625 	 
C 	 -2.08404 	 -14.1421 	 81.8694 	 
H 	 -1.31431 	 -14.8556 	 81.9201 	 
H 	 -2.66664 	 -14.4894 	 80.9603 	 
C 	 -3.06949 	 -14.3727 	 83.0642 	 
H 	 -2.4906 	 -14.3075 	 83.9909 	 
H 	 -3.76659 	 -13.5695 	 83.0407 	 
C 	 -3.85909 	 -15.6758 	 83.082 	 
H 	 -3.23861 	 -16.5362 	 82.9534 	 
H 	 -4.34917 	 -15.8047 	 84.0425 	 
H 	 -4.59827 	 -15.8188 	 82.3055 	 
S 	 -1.89628 	 -8.53351 	 79.202 	 
C 	 -3.16106 	 -7.39341 	 79.4517 	 
C 	 -3.85661 	 -7.55773 	 80.5593 	 
C 	 -3.61758 	 -8.79325 	 81.1895 	 
C 	 -2.46252 	 -9.37144 	 80.6399 	 
H 	 -4.77223 	 -6.94589 	 80.8607 	 
C 	 -4.26246 	 -9.24081 	 82.4341 	 
H 	 -5.0129 	 -9.97434 	 82.1714 	 
H 	 -4.88296 	 -8.34851 	 82.8171 	 
C 	 -3.33858 	 -9.67412 	 83.5887 	 
H 	 -2.42662 	 -9.15601 	 83.4167 	 
H 	 -3.27418 	 -10.7348 	 83.5212 	 
C 	 -3.79224 	 -9.24891 	 85.0411 	 
H 	 -3.29863 	 -8.31891 	 85.2945 	 
H 	 -3.29932 	 -9.89282 	 85.755 	 
H 	 -4.86874 	 -9.20642 	 85.2176 	 
H 	 0.509823 	 -13.0819 	 82.2288 	 
H 	 -3.3446 	 -6.57052 	 78.9612 	 
