34

S 	 60.5536 	 5.13278 	 79.07 	 
C 	 60.1542 	 6.59776 	 80.0256 	 
C 	 59.6862 	 7.56666 	 79.18 	 
C 	 59.7687 	 7.27771 	 77.8061 	 
C 	 60.3436 	 6.0555 	 77.5581 	 
H 	 59.3495 	 7.87081 	 76.9993 	 
C 	 58.8898 	 8.82158 	 79.5456 	 
H 	 59.4965 	 9.71532 	 79.3214 	 
H 	 58.7778 	 8.74467 	 80.6687 	 
C 	 57.5356 	 8.89033 	 78.9081 	 
H 	 57.6741 	 9.13937 	 77.9175 	 
H 	 57.205 	 7.89198 	 78.7278 	 
C 	 56.3869 	 9.72964 	 79.536 	 
H 	 56.1706 	 9.28533 	 80.507 	 
H 	 56.6646 	 10.7368 	 79.6438 	 
H 	 55.5406 	 9.63834 	 78.8597 	 
S 	 60.1754 	 3.66342 	 76.1857 	 
C 	 59.9764 	 3.8484 	 74.4396 	 
C 	 60.7419 	 4.89481 	 74.0214 	 
C 	 60.935 	 5.86598 	 75.0306 	 
C 	 60.5216 	 5.41394 	 76.3108 	 
H 	 60.9824 	 4.99359 	 72.98 	 
C 	 61.5532 	 7.21919 	 74.7897 	 
H 	 61.0848 	 7.88054 	 75.5476 	 
H 	 61.2075 	 7.80292 	 73.8794 	 
C 	 63.0851 	 7.227 	 75.1121 	 
H 	 63.7081 	 6.68824 	 74.3422 	 
H 	 63.2106 	 6.73299 	 76.0539 	 
C 	 63.6828 	 8.62241 	 75.3621 	 
H 	 64.6612 	 8.41684 	 75.7739 	 
H 	 63.1689 	 9.12325 	 76.1967 	 
H 	 63.7901 	 9.25636 	 74.4658 	 
H 	 60.1613 	 6.57636 	 81.1063 	 
H 	 59.8113 	 2.96544 	 73.8228 	 
