34

S 	 -2.84196 	 -12.2883 	 70.7613 	 
C 	 -2.57279 	 -13.3995 	 69.4086 	 
C 	 -2.37577 	 -12.6999 	 68.24 	 
C 	 -2.50873 	 -11.3202 	 68.3367 	 
C 	 -2.80989 	 -10.8878 	 69.6022 	 
H 	 -2.50341 	 -10.5534 	 67.5876 	 
C 	 -2.30871 	 -13.3258 	 66.8699 	 
H 	 -1.49257 	 -14.0067 	 67.0037 	 
H 	 -1.95536 	 -12.488 	 66.1774 	 
C 	 -3.58642 	 -13.8519 	 66.208 	 
H 	 -3.37933 	 -14.0035 	 65.1956 	 
H 	 -3.84121 	 -14.8154 	 66.5599 	 
C 	 -4.84833 	 -12.9554 	 66.3114 	 
H 	 -5.66344 	 -13.4068 	 65.7796 	 
H 	 -4.92284 	 -12.7401 	 67.3812 	 
H 	 -4.66339 	 -11.9305 	 65.8943 	 
S 	 -4.90892 	 -9.64868 	 70.6302 	 
C 	 -5.06947 	 -7.87158 	 70.4952 	 
C 	 -3.94573 	 -7.30177 	 69.914 	 
C 	 -2.95148 	 -8.25562 	 69.5933 	 
C 	 -3.29949 	 -9.58895 	 69.9521 	 
H 	 -3.92889 	 -6.21974 	 69.7712 	 
C 	 -1.69001 	 -7.87398 	 68.8467 	 
H 	 -1.00471 	 -8.74697 	 68.8356 	 
H 	 -1.15637 	 -7.31804 	 69.6263 	 
C 	 -1.92007 	 -7.17457 	 67.5147 	 
H 	 -2.44664 	 -6.19407 	 67.7309 	 
H 	 -2.53651 	 -7.76369 	 66.8414 	 
C 	 -0.559661 	 -6.80833 	 66.866 	 
H 	 -0.0795105 	 -5.92305 	 67.2813 	 
H 	 -0.625215 	 -6.60398 	 65.7714 	 
H 	 0.107115 	 -7.63296 	 66.8638 	 
H 	 -2.4694 	 -14.5227 	 69.3937 	 
H 	 -5.96288 	 -7.36646 	 70.88 	 
