34

S 	 -71.3659 	 48.3886 	 134.047 	 
C 	 -70.8015 	 48.2252 	 135.744 	 
C 	 -71.8647 	 48.4035 	 136.654 	 
C 	 -73.1171 	 48.5872 	 135.914 	 
C 	 -73.0166 	 48.6992 	 134.58 	 
H 	 -74.0933 	 48.7822 	 136.458 	 
C 	 -71.7288 	 48.42 	 138.168 	 
H 	 -72.538 	 48.9667 	 138.492 	 
H 	 -70.8385 	 49.1068 	 138.296 	 
C 	 -71.3231 	 47.1587 	 138.962 	 
H 	 -71.7709 	 46.2649 	 138.563 	 
H 	 -70.1885 	 47.1305 	 139.036 	 
C 	 -71.7768 	 47.3007 	 140.423 	 
H 	 -71.4719 	 46.4543 	 140.966 	 
H 	 -71.4085 	 48.2741 	 140.847 	 
H 	 -72.8293 	 47.3368 	 140.691 	 
S 	 -74.446 	 47.4992 	 132.561 	 
C 	 -75.8089 	 48.3278 	 131.929 	 
C 	 -76.1551 	 49.5709 	 132.519 	 
C 	 -75.1887 	 49.8353 	 133.598 	 
C 	 -74.1719 	 48.8911 	 133.671 	 
H 	 -77.0513 	 50.1609 	 132.295 	 
C 	 -75.3826 	 51.1904 	 134.348 	 
H 	 -75.5735 	 51.9114 	 133.505 	 
H 	 -74.3959 	 51.3903 	 134.694 	 
C 	 -76.3465 	 51.3189 	 135.491 	 
H 	 -76.0027 	 50.6396 	 136.261 	 
H 	 -77.3166 	 50.9602 	 135.15 	 
C 	 -76.4091 	 52.7526 	 136.088 	 
H 	 -75.4144 	 53.0074 	 136.529 	 
H 	 -77.1474 	 52.9118 	 136.828 	 
H 	 -76.6732 	 53.3642 	 135.241 	 
H 	 -69.7636 	 48.1729 	 136.11 	 
H 	 -76.4407 	 47.9079 	 131.166 	 
