34

S 	 35.1195 	 -0.781558 	 75.7701 	 
C 	 34.9285 	 -2.02787 	 74.6669 	 
C 	 33.7521 	 -1.8052 	 73.9603 	 
C 	 33.0554 	 -0.622951 	 74.2955 	 
C 	 33.5915 	 -0.017904 	 75.4094 	 
H 	 32.176 	 -0.083449 	 73.8879 	 
C 	 33.2651 	 -2.68046 	 72.7548 	 
H 	 32.4333 	 -2.18239 	 72.2737 	 
H 	 32.8996 	 -3.56471 	 73.2942 	 
C 	 34.3362 	 -2.98032 	 71.6956 	 
H 	 35.2992 	 -3.4053 	 71.9988 	 
H 	 33.8688 	 -3.79351 	 71.1189 	 
C 	 34.4872 	 -1.78719 	 70.7312 	 
H 	 33.5087 	 -1.39183 	 70.4182 	 
H 	 35.003 	 -1.08319 	 71.3328 	 
H 	 35.1199 	 -2.03589 	 69.9353 	 
S 	 31.4512 	 1.62029 	 76.0401 	 
C 	 31.6777 	 2.74664 	 77.4027 	 
C 	 33.0186 	 2.96744 	 77.6656 	 
C 	 33.8727 	 2.0942 	 76.9333 	 
C 	 33.1593 	 1.18184 	 76.1394 	 
H 	 33.3901 	 3.6412 	 78.3842 	 
C 	 35.2365 	 1.97833 	 77.4261 	 
H 	 35.4906 	 3.06897 	 77.4738 	 
H 	 35.9326 	 1.62977 	 76.6004 	 
C 	 35.5681 	 1.34455 	 78.7659 	 
H 	 35.1251 	 0.379462 	 78.5825 	 
H 	 35.0875 	 1.88252 	 79.6366 	 
C 	 37.0202 	 1.18367 	 79.0825 	 
H 	 37.0693 	 0.520199 	 79.9225 	 
H 	 37.4997 	 2.1187 	 79.3862 	 
H 	 37.6208 	 0.635747 	 78.4139 	 
H 	 35.6593 	 -2.75047 	 74.4045 	 
H 	 30.9095 	 3.41683 	 77.8131 	 
