34

S 	 -3.9068 	 -12.3929 	 80.3385 	 
C 	 -2.48322 	 -11.6546 	 81.0514 	 
C 	 -2.53909 	 -11.7668 	 82.413 	 
C 	 -3.8427 	 -12.1973 	 82.8723 	 
C 	 -4.68342 	 -12.6109 	 81.8744 	 
H 	 -4.08846 	 -12.1154 	 83.9031 	 
C 	 -1.42923 	 -11.3887 	 83.3672 	 
H 	 -0.84828 	 -12.3158 	 83.4135 	 
H 	 -1.76695 	 -11.1887 	 84.3739 	 
C 	 -0.484684 	 -10.269 	 82.9569 	 
H 	 0.23019 	 -10.1655 	 83.7793 	 
H 	 0.0112339 	 -10.5893 	 81.9938 	 
C 	 -1.26316 	 -8.9405 	 82.7753 	 
H 	 -2.07226 	 -8.87104 	 83.5443 	 
H 	 -0.510263 	 -8.23394 	 82.9861 	 
H 	 -1.6609 	 -8.65778 	 81.818 	 
S 	 -7.09026 	 -12.2798 	 80.7016 	 
C 	 -8.58732 	 -12.7408 	 81.468 	 
C 	 -8.28521 	 -13.3507 	 82.7232 	 
C 	 -6.9187 	 -13.5331 	 83.0247 	 
C 	 -6.11753 	 -12.9821 	 82.0182 	 
H 	 -9.11224 	 -13.537 	 83.3725 	 
C 	 -6.40554 	 -14.1049 	 84.4181 	 
H 	 -6.22178 	 -13.1496 	 84.9487 	 
H 	 -5.46191 	 -14.4786 	 84.1973 	 
C 	 -7.24953 	 -14.999 	 85.2876 	 
H 	 -7.70281 	 -15.9119 	 84.9446 	 
H 	 -8.1084 	 -14.3889 	 85.5915 	 
C 	 -6.57664 	 -15.3889 	 86.5346 	 
H 	 -7.20912 	 -16.146 	 87.0139 	 
H 	 -6.42297 	 -14.5911 	 87.3496 	 
H 	 -5.58645 	 -15.9651 	 86.3306 	 
H 	 -1.67834 	 -11.1767 	 80.5384 	 
H 	 -9.53971 	 -12.4541 	 81.1475 	 
