34

S 	 -79.4659 	 47.4979 	 124.026 	 
C 	 -80.5598 	 46.2307 	 124.491 	 
C 	 -79.945 	 45.1163 	 124.999 	 
C 	 -78.5189 	 45.2971 	 124.943 	 
C 	 -78.1042 	 46.543 	 124.539 	 
H 	 -77.7881 	 44.5507 	 125.295 	 
C 	 -80.634 	 43.9394 	 125.614 	 
H 	 -81.5625 	 44.1098 	 126.032 	 
H 	 -80.0887 	 43.4331 	 126.432 	 
C 	 -80.8234 	 42.766 	 124.697 	 
H 	 -79.8355 	 42.4916 	 124.294 	 
H 	 -81.2367 	 41.9781 	 125.379 	 
C 	 -82.0348 	 43.0356 	 123.74 	 
H 	 -81.8608 	 43.8861 	 123.055 	 
H 	 -82.1025 	 42.1618 	 122.999 	 
H 	 -82.9177 	 43.3299 	 124.333 	 
S 	 -76.6036 	 48.8142 	 124.883 	 
C 	 -74.8907 	 48.8374 	 124.716 	 
C 	 -74.5001 	 47.661 	 124.152 	 
C 	 -75.4737 	 46.627 	 124 	 
C 	 -76.7307 	 47.0849 	 124.45 	 
H 	 -73.4867 	 47.5122 	 123.845 	 
C 	 -75.2115 	 45.2668 	 123.445 	 
H 	 -76.2262 	 44.9539 	 123.08 	 
H 	 -74.873 	 44.6259 	 124.287 	 
C 	 -74.3107 	 45.1479 	 122.182 	 
H 	 -73.3193 	 45.622 	 122.44 	 
H 	 -74.6868 	 45.8165 	 121.439 	 
C 	 -74.1907 	 43.8093 	 121.644 	 
H 	 -75.0671 	 43.6071 	 120.96 	 
H 	 -74.3053 	 43.0142 	 122.442 	 
H 	 -73.328 	 43.4912 	 121.061 	 
H 	 -81.6213 	 46.2712 	 124.329 	 
H 	 -74.3301 	 49.7407 	 124.884 	 
