34

S 	 -47.6161 	 50.3602 	 104.615 	 
C 	 -47.0915 	 50.4995 	 106.273 	 
C 	 -47.3311 	 49.3042 	 107.023 	 
C 	 -48.1763 	 48.4396 	 106.236 	 
C 	 -48.3555 	 48.7808 	 104.888 	 
H 	 -48.5722 	 47.4535 	 106.497 	 
C 	 -47.0328 	 49.0477 	 108.551 	 
H 	 -46.1395 	 49.6798 	 108.791 	 
H 	 -46.7504 	 47.9843 	 108.824 	 
C 	 -48.0429 	 49.5733 	 109.506 	 
H 	 -48.2541 	 50.6287 	 109.383 	 
H 	 -48.9937 	 49.0633 	 109.311 	 
C 	 -47.5405 	 49.427 	 110.885 	 
H 	 -47.0648 	 48.4104 	 111.223 	 
H 	 -46.7256 	 50.173 	 111.038 	 
H 	 -48.2917 	 49.7037 	 111.643 	 
S 	 -50.5473 	 48.0997 	 103.303 	 
C 	 -50.5164 	 46.6327 	 102.411 	 
C 	 -49.2967 	 46.0399 	 102.525 	 
C 	 -48.3571 	 46.7265 	 103.416 	 
C 	 -48.9241 	 47.8983 	 103.915 	 
H 	 -49.0439 	 45.2016 	 101.942 	 
C 	 -46.9341 	 46.1733 	 103.715 	 
H 	 -46.5877 	 46.827 	 104.496 	 
H 	 -46.2819 	 46.5871 	 102.835 	 
C 	 -46.9555 	 44.5835 	 103.958 	 
H 	 -47.9989 	 44.134 	 103.893 	 
H 	 -46.8373 	 44.4106 	 105.049 	 
C 	 -45.761 	 43.9243 	 103.129 	 
H 	 -45.7317 	 42.8332 	 103.352 	 
H 	 -44.7527 	 44.165 	 103.496 	 
H 	 -45.7557 	 44.0976 	 101.963 	 
H 	 -46.6429 	 51.3211 	 106.741 	 
H 	 -51.3225 	 46.3489 	 101.754 	 
