34

S 	 -76.0444 	 47.1567 	 124.207 	 
C 	 -75.7858 	 45.4245 	 123.993 	 
C 	 -74.5311 	 45.0848 	 124.399 	 
C 	 -73.7573 	 46.1787 	 124.938 	 
C 	 -74.3806 	 47.4294 	 124.759 	 
H 	 -72.7267 	 46.2374 	 125.354 	 
C 	 -74.0317 	 43.663 	 124.376 	 
H 	 -74.6614 	 43.0565 	 123.724 	 
H 	 -74.107 	 43.3436 	 125.414 	 
C 	 -72.5839 	 43.3861 	 123.929 	 
H 	 -71.9503 	 43.8472 	 124.688 	 
H 	 -72.4812 	 42.3837 	 124.16 	 
C 	 -72.4392 	 43.7177 	 122.469 	 
H 	 -71.4209 	 43.348 	 122.244 	 
H 	 -73.1727 	 43.1571 	 121.935 	 
H 	 -72.5118 	 44.7175 	 122.104 	 
S 	 -74.6692 	 49.4787 	 126.506 	 
C 	 -73.5451 	 50.8229 	 126.487 	 
C 	 -72.4332 	 50.5874 	 125.705 	 
C 	 -72.6227 	 49.3994 	 124.938 	 
C 	 -73.8677 	 48.7257 	 125.171 	 
H 	 -71.5686 	 51.2897 	 125.62 	 
C 	 -71.5206 	 48.9412 	 124.049 	 
H 	 -71.2212 	 49.8066 	 123.502 	 
H 	 -71.868 	 48.1177 	 123.438 	 
C 	 -70.3775 	 48.3059 	 124.885 	 
H 	 -70.8126 	 47.63 	 125.612 	 
H 	 -69.9441 	 49.0521 	 125.481 	 
C 	 -69.2886 	 47.7473 	 124 	 
H 	 -68.5738 	 47.0877 	 124.576 	 
H 	 -68.663 	 48.6126 	 123.561 	 
H 	 -69.5752 	 47.2007 	 123.082 	 
H 	 -76.4902 	 44.9017 	 123.434 	 
H 	 -73.6575 	 51.6583 	 127.124 	 
