34

S 	 -13.7757 	 39.4993 	 37.5863 	 
C 	 -12.7618 	 40.3025 	 36.4021 	 
C 	 -12.1483 	 39.4074 	 35.5576 	 
C 	 -12.1754 	 38.1181 	 36.1182 	 
C 	 -12.8644 	 38.0007 	 37.2797 	 
H 	 -11.5354 	 37.3487 	 35.8676 	 
C 	 -11.4417 	 39.7299 	 34.2401 	 
H 	 -10.5115 	 39.1793 	 34.1982 	 
H 	 -11.0085 	 40.7211 	 34.3786 	 
C 	 -12.3004 	 39.7844 	 32.9483 	 
H 	 -12.9209 	 40.6776 	 33.0928 	 
H 	 -11.5758 	 39.9105 	 32.1077 	 
C 	 -13.1292 	 38.4751 	 32.8014 	 
H 	 -12.5527 	 37.8299 	 32.2334 	 
H 	 -13.5678 	 38.0312 	 33.7731 	 
H 	 -14.0189 	 38.778 	 32.2227 	 
S 	 -12.972 	 37.3266 	 39.8711 	 
C 	 -12.8718 	 35.6429 	 40.2864 	 
C 	 -12.7209 	 34.8148 	 39.2301 	 
C 	 -12.7209 	 35.5344 	 37.9769 	 
C 	 -12.8604 	 36.8922 	 38.203 	 
H 	 -12.6582 	 33.745 	 39.3268 	 
C 	 -12.6196 	 34.7852 	 36.6722 	 
H 	 -12.8784 	 35.3335 	 35.7751 	 
H 	 -13.4595 	 34.1077 	 36.5577 	 
C 	 -11.4024 	 34.0187 	 36.5148 	 
H 	 -11.2662 	 33.3103 	 37.3778 	 
H 	 -10.6815 	 34.7779 	 36.6611 	 
C 	 -11.4021 	 33.3379 	 35.0689 	 
H 	 -10.4754 	 32.7817 	 34.9959 	 
H 	 -11.4226 	 33.9999 	 34.1957 	 
H 	 -12.2294 	 32.58 	 34.9628 	 
H 	 -12.7707 	 41.3813 	 36.2278 	 
H 	 -12.7149 	 35.2222 	 41.291 	 
