34

S 	 -61.6089 	 51.5128 	 127.316 	 
C 	 -63.0393 	 51.5461 	 128.276 	 
C 	 -63.0528 	 52.6337 	 129.103 	 
C 	 -61.9025 	 53.4682 	 128.978 	 
C 	 -60.928 	 52.8374 	 128.208 	 
H 	 -61.631 	 54.3749 	 129.564 	 
C 	 -64.2455 	 52.9464 	 130.008 	 
H 	 -65.0765 	 52.2691 	 129.861 	 
H 	 -64.593 	 53.957 	 129.698 	 
C 	 -64.0927 	 53.0631 	 131.527 	 
H 	 -64.029 	 52.1199 	 131.962 	 
H 	 -63.1043 	 53.5721 	 131.85 	 
C 	 -65.2687 	 53.8211 	 132.251 	 
H 	 -66.3001 	 53.4247 	 131.98 	 
H 	 -65.1916 	 53.6803 	 133.314 	 
H 	 -65.2076 	 54.9425 	 132.014 	 
S 	 -58.5124 	 53.0621 	 129.39 	 
C 	 -57.1188 	 53.711 	 128.506 	 
C 	 -57.4722 	 54.0035 	 127.19 	 
C 	 -58.8752 	 53.8838 	 126.978 	 
C 	 -59.5858 	 53.3729 	 128.055 	 
H 	 -56.8312 	 54.421 	 126.408 	 
C 	 -59.4589 	 54.2132 	 125.646 	 
H 	 -60.5031 	 53.9326 	 125.571 	 
H 	 -59.0662 	 53.3991 	 124.903 	 
C 	 -59.1729 	 55.6334 	 125.118 	 
H 	 -58.3536 	 55.8576 	 124.482 	 
H 	 -59.0536 	 56.3498 	 125.981 	 
C 	 -60.3213 	 56.1451 	 124.235 	 
H 	 -61.2828 	 56.2254 	 124.794 	 
H 	 -60.4598 	 55.531 	 123.406 	 
H 	 -60.11 	 57.1219 	 123.823 	 
H 	 -63.9028 	 50.9714 	 128.105 	 
H 	 -56.0858 	 53.8376 	 128.895 	 
