34

S 	 -8.88303 	 51.4969 	 44.3702 	 
C 	 -10.5061 	 51.4773 	 43.6632 	 
C 	 -11.0792 	 50.2298 	 43.5504 	 
C 	 -10.1708 	 49.2728 	 44.1427 	 
C 	 -9.02851 	 49.8147 	 44.7797 	 
H 	 -10.5337 	 48.3153 	 44.3433 	 
C 	 -12.5037 	 49.9081 	 43.0164 	 
H 	 -12.5401 	 48.9684 	 42.4016 	 
H 	 -12.8431 	 50.7123 	 42.4195 	 
C 	 -13.499 	 49.7211 	 44.202 	 
H 	 -14.2272 	 49.0481 	 43.8433 	 
H 	 -12.8984 	 49.2062 	 45.0336 	 
C 	 -14.1185 	 51.0049 	 44.7655 	 
H 	 -13.4416 	 51.7793 	 45.1386 	 
H 	 -14.8161 	 51.5098 	 44.0978 	 
H 	 -14.6589 	 50.6691 	 45.7614 	 
S 	 -6.48684 	 48.9224 	 45.2394 	 
C 	 -6.12371 	 48.0773 	 46.7158 	 
C 	 -7.2852 	 47.9164 	 47.442 	 
C 	 -8.47245 	 48.2952 	 46.8116 	 
C 	 -8.15744 	 48.9982 	 45.6265 	 
H 	 -7.01597 	 47.6828 	 48.467 	 
C 	 -9.79553 	 48.313 	 47.4494 	 
H 	 -9.94241 	 47.3471 	 48.0062 	 
H 	 -10.4886 	 48.1341 	 46.6495 	 
C 	 -10.1008 	 49.4744 	 48.4136 	 
H 	 -10.1984 	 50.3207 	 47.7595 	 
H 	 -9.25178 	 49.6103 	 49.1097 	 
C 	 -11.4135 	 49.2398 	 49.1751 	 
H 	 -11.1466 	 48.6813 	 50.2004 	 
H 	 -12.0962 	 48.5831 	 48.6849 	 
H 	 -11.9696 	 50.182 	 49.2375 	 
H 	 -10.9668 	 52.3619 	 43.3203 	 
H 	 -5.17159 	 47.7838 	 47.0999 	 
