34

S 	 -47.053 	 65.5705 	 129.303 	 
C 	 -45.7919 	 64.4468 	 129.456 	 
C 	 -44.8612 	 64.7443 	 130.424 	 
C 	 -45.0393 	 66.1425 	 130.797 	 
C 	 -46.2088 	 66.7049 	 130.352 	 
H 	 -44.3326 	 66.6201 	 131.501 	 
C 	 -43.7996 	 63.8315 	 131.021 	 
H 	 -44.3504 	 63.3164 	 131.869 	 
H 	 -42.9997 	 64.3965 	 131.493 	 
C 	 -43.0713 	 62.8579 	 130.122 	 
H 	 -42.5197 	 62.2299 	 130.79 	 
H 	 -43.7857 	 62.1681 	 129.579 	 
C 	 -42.2074 	 63.6408 	 129.118 	 
H 	 -42.8327 	 64.1643 	 128.336 	 
H 	 -41.5566 	 64.4442 	 129.549 	 
H 	 -41.5128 	 63.0051 	 128.572 	 
S 	 -47.3634 	 69.0667 	 129.611 	 
C 	 -47.408 	 70.3191 	 130.801 	 
C 	 -47.4817 	 69.8066 	 132.039 	 
C 	 -47.1746 	 68.4082 	 132.079 	 
C 	 -46.7724 	 67.9436 	 130.838 	 
H 	 -47.6095 	 70.5099 	 132.851 	 
C 	 -46.9536 	 67.7672 	 133.438 	 
H 	 -46.0494 	 68.2761 	 133.742 	 
H 	 -46.7864 	 66.7053 	 133.289 	 
C 	 -48.1276 	 67.9471 	 134.444 	 
H 	 -49.0446 	 67.5718 	 133.986 	 
H 	 -48.1591 	 69.0465 	 134.671 	 
C 	 -47.7953 	 67.1024 	 135.691 	 
H 	 -48.6121 	 67.1496 	 136.346 	 
H 	 -46.9599 	 67.5675 	 136.217 	 
H 	 -47.4495 	 66.1164 	 135.38 	 
H 	 -45.8986 	 63.4841 	 128.934 	 
H 	 -47.5058 	 71.3285 	 130.592 	 
