34

S 	 -7.31986 	 60.4474 	 57.3395 	 
C 	 -6.05416 	 59.9302 	 58.5103 	 
C 	 -6.65825 	 59.0936 	 59.4656 	 
C 	 -8.00892 	 58.8161 	 59.1945 	 
C 	 -8.57604 	 59.5287 	 58.099 	 
H 	 -8.56631 	 58.1434 	 59.8309 	 
C 	 -5.90325 	 58.4219 	 60.6056 	 
H 	 -6.54786 	 58.424 	 61.4192 	 
H 	 -5.06868 	 59.0423 	 60.9152 	 
C 	 -5.48032 	 56.9197 	 60.3604 	 
H 	 -5.00143 	 56.5796 	 61.2324 	 
H 	 -6.30659 	 56.2933 	 60.1012 	 
C 	 -4.45869 	 56.8232 	 59.2273 	 
H 	 -4.91861 	 56.7673 	 58.3281 	 
H 	 -3.80696 	 57.7346 	 59.1292 	 
H 	 -3.77129 	 56.0009 	 59.3827 	 
S 	 -10.7644 	 57.9698 	 57.3641 	 
C 	 -12.2867 	 58.8187 	 57.0464 	 
C 	 -12.1834 	 60.2086 	 57.0836 	 
C 	 -10.8805 	 60.6095 	 57.4389 	 
C 	 -10.0143 	 59.5209 	 57.6818 	 
H 	 -13.0806 	 60.7871 	 56.9086 	 
C 	 -10.6567 	 62.146 	 57.5496 	 
H 	 -11.2965 	 62.6733 	 56.8549 	 
H 	 -9.63701 	 62.5209 	 57.3919 	 
C 	 -10.9255 	 62.8058 	 58.8999 	 
H 	 -11.9072 	 62.6717 	 59.2409 	 
H 	 -10.6368 	 63.8952 	 58.7102 	 
C 	 -10.058 	 62.2994 	 59.9895 	 
H 	 -10.099 	 63.0106 	 60.7049 	 
H 	 -9.06028 	 62.1158 	 59.6987 	 
H 	 -10.4691 	 61.3958 	 60.3827 	 
H 	 -5.05503 	 60.1849 	 58.5147 	 
H 	 -13.2025 	 58.2784 	 56.9638 	 
