34

S 	 49.0057 	 12.8221 	 87.1897 	 
C 	 47.5093 	 12.5887 	 86.3769 	 
C 	 47.7531 	 12.2056 	 85.049 	 
C 	 49.1792 	 12.072 	 84.7192 	 
C 	 50.0278 	 12.4316 	 85.7808 	 
H 	 49.5905 	 11.8111 	 83.7525 	 
C 	 46.6749 	 11.9488 	 84.0434 	 
H 	 45.6727 	 12.1063 	 84.3595 	 
H 	 46.8011 	 11.0027 	 83.5242 	 
C 	 46.7999 	 13.0142 	 82.8878 	 
H 	 47.8122 	 13.2722 	 82.683 	 
H 	 46.3249 	 12.6625 	 82.0071 	 
C 	 46.2186 	 14.3374 	 83.3344 	 
H 	 46.0731 	 14.9613 	 82.3719 	 
H 	 45.2648 	 14.1463 	 83.7653 	 
H 	 46.7661 	 14.7951 	 84.0828 	 
S 	 52.3214 	 13.8028 	 86.429 	 
C 	 53.7809 	 12.879 	 86.423 	 
C 	 53.6752 	 11.5882 	 85.9685 	 
C 	 52.3575 	 11.3145 	 85.5337 	 
C 	 51.4887 	 12.3796 	 85.8196 	 
H 	 54.5443 	 11.0353 	 86.0544 	 
C 	 52.0268 	 9.94384 	 85.0221 	 
H 	 51.2761 	 10.0975 	 84.284 	 
H 	 51.6114 	 9.30509 	 85.8649 	 
C 	 53.1723 	 9.21574 	 84.2828 	 
H 	 52.9806 	 8.20119 	 84.0101 	 
H 	 54.0501 	 9.06832 	 84.9283 	 
C 	 53.5814 	 10.0368 	 83.0071 	 
H 	 54.1766 	 10.9244 	 83.2268 	 
H 	 52.6796 	 10.4077 	 82.4417 	 
H 	 54.0804 	 9.37315 	 82.3655 	 
H 	 46.4849 	 12.5261 	 86.7715 	 
H 	 54.6948 	 13.2951 	 86.699 	 
