34

S 	 14.2782 	 -14.0077 	 79.6044 	 
C 	 15.1582 	 -13.9942 	 78.0998 	 
C 	 14.4559 	 -14.6441 	 77.1429 	 
C 	 13.0531 	 -14.8209 	 77.4438 	 
C 	 12.8409 	 -14.5625 	 78.8043 	 
H 	 12.19 	 -15.0026 	 76.783 	 
C 	 14.937 	 -14.9298 	 75.6708 	 
H 	 14.2625 	 -15.6325 	 75.1693 	 
H 	 15.884 	 -15.4686 	 75.6451 	 
C 	 15.0765 	 -13.5743 	 74.8452 	 
H 	 14.1518 	 -12.8873 	 74.9435 	 
H 	 15.845 	 -12.9421 	 75.2717 	 
C 	 15.0984 	 -13.7167 	 73.3186 	 
H 	 16.0586 	 -14.0974 	 72.9934 	 
H 	 14.3578 	 -14.4334 	 73.0501 	 
H 	 15.0157 	 -12.7199 	 72.833 	 
S 	 11.8877 	 -15.8684 	 80.9234 	 
C 	 10.1499 	 -15.9506 	 81.1952 	 
C 	 9.50148 	 -15.4343 	 80.1413 	 
C 	 10.2805 	 -14.8666 	 79.1171 	 
C 	 11.5995 	 -14.8515 	 79.5043 	 
H 	 8.42837 	 -15.5108 	 80.0411 	 
C 	 9.6611 	 -14.4104 	 77.7837 	 
H 	 10.2045 	 -13.6489 	 77.3651 	 
H 	 8.77938 	 -13.8202 	 78.0251 	 
C 	 9.20768 	 -15.5731 	 76.7774 	 
H 	 10.1768 	 -16.0522 	 76.5782 	 
H 	 9.02911 	 -15.229 	 75.7308 	 
C 	 7.97879 	 -16.4059 	 77.2307 	 
H 	 8.1835 	 -17.0265 	 78.0935 	 
H 	 7.67912 	 -17.1069 	 76.4812 	 
H 	 7.24173 	 -15.6725 	 77.5085 	 
H 	 16.2066 	 -13.6054 	 77.9867 	 
H 	 9.73589 	 -16.374 	 82.139 	 
