34

S 	 -15.7509 	 35.0427 	 35.4951 	 
C 	 -14.5559 	 34.1604 	 34.5689 	 
C 	 -13.2762 	 34.4427 	 35.0754 	 
C 	 -13.2602 	 35.124 	 36.3405 	 
C 	 -14.5095 	 35.6619 	 36.6622 	 
H 	 -12.4501 	 35.3406 	 36.9853 	 
C 	 -11.9305 	 34.2364 	 34.3874 	 
H 	 -11.333 	 35.1608 	 34.4998 	 
H 	 -12.0419 	 34.2472 	 33.3438 	 
C 	 -11.1634 	 32.9745 	 34.7397 	 
H 	 -11.9717 	 32.3031 	 34.4936 	 
H 	 -10.3785 	 32.6664 	 34.043 	 
C 	 -10.7293 	 32.8869 	 36.2073 	 
H 	 -11.6503 	 33.0259 	 36.7421 	 
H 	 -10.2137 	 31.9842 	 36.3385 	 
H 	 -9.92036 	 33.5657 	 36.4289 	 
S 	 -15.9274 	 37.9156 	 37.4481 	 
C 	 -15.7637 	 38.4433 	 39.0933 	 
C 	 -15.4554 	 37.4148 	 39.8929 	 
C 	 -14.8784 	 36.3147 	 39.185 	 
C 	 -15.007 	 36.4509 	 37.7909 	 
H 	 -15.4383 	 37.5422 	 40.9936 	 
C 	 -14.1175 	 35.2285 	 39.9362 	 
H 	 -13.6765 	 35.7562 	 40.7306 	 
H 	 -13.3341 	 34.9537 	 39.2386 	 
C 	 -14.9265 	 33.9849 	 40.2796 	 
H 	 -15.624 	 34.2355 	 41.0669 	 
H 	 -14.2723 	 33.17 	 40.7354 	 
C 	 -15.6418 	 33.379 	 39.1048 	 
H 	 -16.2751 	 32.4933 	 39.4895 	 
H 	 -14.9708 	 32.9483 	 38.3138 	 
H 	 -16.3041 	 34.1748 	 38.7441 	 
H 	 -14.8424 	 33.7938 	 33.6237 	 
H 	 -16.3177 	 39.2697 	 39.4085 	 
