34

S 	 -24.6363 	 52.4922 	 66.2164 	 
C 	 -23.5598 	 51.8717 	 64.9953 	 
C 	 -22.8444 	 50.7796 	 65.4823 	 
C 	 -23.1029 	 50.565 	 66.8957 	 
C 	 -24.0278 	 51.3887 	 67.4293 	 
H 	 -22.6224 	 49.769 	 67.5047 	 
C 	 -21.7147 	 50.2287 	 64.721 	 
H 	 -20.868 	 50.117 	 65.3983 	 
H 	 -21.401 	 50.8009 	 63.8296 	 
C 	 -22.0602 	 48.8766 	 64.0061 	 
H 	 -21.1654 	 48.384 	 63.6045 	 
H 	 -22.5253 	 48.2429 	 64.73 	 
C 	 -22.9778 	 49.0677 	 62.8673 	 
H 	 -22.4689 	 49.6361 	 62.0919 	 
H 	 -23.2725 	 48.152 	 62.3149 	 
H 	 -23.8473 	 49.6525 	 63.1493 	 
S 	 -23.8294 	 52.7605 	 69.729 	 
C 	 -24.178 	 51.7962 	 71.1969 	 
C 	 -24.7992 	 50.5825 	 70.9374 	 
C 	 -24.9142 	 50.33 	 69.544 	 
C 	 -24.4427 	 51.4145 	 68.8123 	 
H 	 -25.1194 	 49.9694 	 71.7462 	 
C 	 -25.5931 	 49.0304 	 69.1242 	 
H 	 -24.9728 	 48.0786 	 69.203 	 
H 	 -25.7323 	 49.0923 	 68.0482 	 
C 	 -26.9504 	 48.7808 	 69.7971 	 
H 	 -27.4788 	 49.6821 	 69.9961 	 
H 	 -26.7388 	 48.1751 	 70.7202 	 
C 	 -27.8252 	 47.9107 	 69.0038 	 
H 	 -27.3399 	 46.9443 	 68.9309 	 
H 	 -28.0734 	 48.3388 	 68.0881 	 
H 	 -28.7493 	 47.622 	 69.5475 	 
H 	 -23.3866 	 52.1354 	 63.9937 	 
H 	 -23.9716 	 52.1338 	 72.1693 	 
