34

S 	 -30.7822 	 68.7196 	 109.467 	 
C 	 -32.4675 	 68.707 	 108.859 	 
C 	 -32.9242 	 69.987 	 108.774 	 
C 	 -31.9384 	 70.9748 	 109.069 	 
C 	 -30.6718 	 70.4314 	 109.305 	 
H 	 -32.0516 	 72.0353 	 108.973 	 
C 	 -34.336 	 70.3074 	 108.504 	 
H 	 -35.0089 	 69.9496 	 109.318 	 
H 	 -34.5389 	 69.5719 	 107.792 	 
C 	 -34.727 	 71.7188 	 108.18 	 
H 	 -34.8294 	 72.2759 	 109.095 	 
H 	 -33.8987 	 72.2577 	 107.672 	 
C 	 -36.0521 	 71.739 	 107.4 	 
H 	 -36.1515 	 72.7163 	 106.978 	 
H 	 -36.0778 	 71.06 	 106.567 	 
H 	 -36.808 	 71.5276 	 108.14 	 
S 	 -28.5756 	 70.6286 	 110.979 	 
C 	 -27.461 	 71.9845 	 110.865 	 
C 	 -27.9164 	 72.8894 	 109.896 	 
C 	 -29.0808 	 72.4817 	 109.16 	 
C 	 -29.5458 	 71.2313 	 109.661 	 
H 	 -27.3573 	 73.753 	 109.624 	 
C 	 -29.6461 	 73.1812 	 107.976 	 
H 	 -30.1228 	 72.457 	 107.393 	 
H 	 -28.8108 	 73.4673 	 107.324 	 
C 	 -30.4555 	 74.3812 	 108.287 	 
H 	 -29.8778 	 75.0927 	 108.95 	 
H 	 -31.5249 	 74.1638 	 108.776 	 
C 	 -30.6683 	 75.3529 	 107.178 	 
H 	 -31.0365 	 76.319 	 107.55 	 
H 	 -31.3776 	 74.8585 	 106.461 	 
H 	 -29.7623 	 75.7304 	 106.579 	 
H 	 -33.1252 	 67.8743 	 108.8 	 
H 	 -26.6872 	 72.2994 	 111.545 	 
