34

S 	 47.8111 	 9.32749 	 91.7615 	 
C 	 47.9259 	 11.0649 	 92.0213 	 
C 	 48.6652 	 11.6589 	 91.0237 	 
C 	 49.1109 	 10.7673 	 89.9777 	 
C 	 48.6314 	 9.53318 	 90.1101 	 
H 	 49.7577 	 11.0105 	 89.1574 	 
C 	 49.3019 	 13.0268 	 91.0013 	 
H 	 48.4834 	 13.8077 	 91.1299 	 
H 	 49.8012 	 13.2203 	 90.0309 	 
C 	 50.4345 	 13.2625 	 92.0689 	 
H 	 50.869 	 14.2282 	 91.8415 	 
H 	 50.1291 	 13.3566 	 93.0958 	 
C 	 51.6472 	 12.2648 	 91.9449 	 
H 	 52.1439 	 12.2211 	 90.9475 	 
H 	 52.4292 	 12.7026 	 92.5568 	 
H 	 51.4155 	 11.2629 	 92.2344 	 
S 	 50.8942 	 8.31638 	 89.0787 	 
C 	 50.687 	 6.80285 	 88.1464 	 
C 	 49.4088 	 6.40813 	 88.0157 	 
C 	 48.4801 	 7.25466 	 88.6664 	 
C 	 49.118 	 8.31616 	 89.3803 	 
H 	 49.1282 	 5.49581 	 87.4809 	 
C 	 46.9895 	 7.0116 	 88.7585 	 
H 	 46.4585 	 7.0766 	 87.7619 	 
H 	 46.6211 	 7.84002 	 89.3651 	 
C 	 46.6073 	 5.66652 	 89.3156 	 
H 	 46.9897 	 5.51646 	 90.3134 	 
H 	 46.9704 	 4.89884 	 88.6958 	 
C 	 45.1053 	 5.43948 	 89.4428 	 
H 	 44.9276 	 4.40972 	 89.8644 	 
H 	 44.5158 	 5.45507 	 88.5106 	 
H 	 44.6586 	 6.15997 	 90.1629 	 
H 	 47.552 	 11.5358 	 92.8931 	 
H 	 51.4738 	 6.20182 	 87.7422 	 
