34

S 	 11.2086 	 -8.5424 	 97.257 	 
C 	 9.73176 	 -9.21261 	 97.9922 	 
C 	 8.71692 	 -9.20407 	 97.1004 	 
C 	 9.0621 	 -8.74828 	 95.7706 	 
C 	 10.3828 	 -8.33553 	 95.736 	 
H 	 8.42623 	 -8.81301 	 94.9116 	 
C 	 7.46716 	 -10.026 	 97.32 	 
H 	 6.64994 	 -9.41735 	 96.9606 	 
H 	 7.36462 	 -10.0686 	 98.3829 	 
C 	 7.4595 	 -11.4443 	 96.8108 	 
H 	 6.56995 	 -11.9238 	 97.1449 	 
H 	 7.54754 	 -11.3626 	 95.672 	 
C 	 8.70119 	 -12.3293 	 97.1493 	 
H 	 9.58848 	 -11.8584 	 96.8632 	 
H 	 8.73684 	 -12.432 	 98.2031 	 
H 	 8.64819 	 -13.3047 	 96.614 	 
S 	 11.9623 	 -6.35082 	 94.8514 	 
C 	 12.6182 	 -6.51976 	 93.2194 	 
C 	 11.977 	 -7.42991 	 92.4452 	 
C 	 11.1992 	 -8.30212 	 93.2872 	 
C 	 11.0422 	 -7.80408 	 94.5914 	 
H 	 12.2479 	 -7.45039 	 91.3789 	 
C 	 10.4963 	 -9.49526 	 92.7109 	 
H 	 10.1142 	 -10.1212 	 93.5184 	 
H 	 11.1901 	 -10.208 	 92.2173 	 
C 	 9.29075 	 -9.16905 	 91.7911 	 
H 	 9.39944 	 -8.47837 	 90.9999 	 
H 	 8.66178 	 -8.80636 	 92.5527 	 
C 	 8.66931 	 -10.4294 	 91.1552 	 
H 	 7.88356 	 -10.1554 	 90.4956 	 
H 	 8.37546 	 -11.2128 	 91.8113 	 
H 	 9.35177 	 -10.8792 	 90.5262 	 
H 	 9.58316 	 -9.25044 	 99.0684 	 
H 	 13.3171 	 -5.78053 	 92.7994 	 
