34

S 	 -64.6914 	 57.1218 	 127.929 	 
C 	 -65.808 	 55.7929 	 127.876 	 
C 	 -65.1822 	 54.5425 	 127.878 	 
C 	 -63.7948 	 54.7679 	 127.591 	 
C 	 -63.3164 	 56.017 	 127.697 	 
H 	 -63.0791 	 53.9452 	 127.503 	 
C 	 -65.9709 	 53.2413 	 128.026 	 
H 	 -66.6364 	 53.4168 	 128.885 	 
H 	 -65.2743 	 52.47 	 128.375 	 
C 	 -66.7525 	 52.7668 	 126.83 	 
H 	 -67.4179 	 53.586 	 126.504 	 
H 	 -66.075 	 52.4165 	 125.991 	 
C 	 -67.5373 	 51.4681 	 127.352 	 
H 	 -68.0131 	 51.614 	 128.296 	 
H 	 -68.3428 	 51.1729 	 126.629 	 
H 	 -66.8612 	 50.6207 	 127.554 	 
S 	 -60.6758 	 55.972 	 128.595 	 
C 	 -59.4944 	 56.7551 	 127.656 	 
C 	 -60.08 	 57.4778 	 126.653 	 
C 	 -61.5117 	 57.338 	 126.473 	 
C 	 -61.9894 	 56.5432 	 127.542 	 
H 	 -59.4663 	 58.1021 	 125.987 	 
C 	 -62.4111 	 57.988 	 125.388 	 
H 	 -62.7293 	 59.0554 	 125.786 	 
H 	 -63.3314 	 57.4211 	 125.268 	 
C 	 -61.794 	 58.0924 	 123.983 	 
H 	 -61.6668 	 57.068 	 123.651 	 
H 	 -60.7801 	 58.4442 	 124.076 	 
C 	 -62.7084 	 58.8373 	 122.919 	 
H 	 -62.2089 	 59.0283 	 121.943 	 
H 	 -62.9439 	 59.8266 	 123.255 	 
H 	 -63.5872 	 58.1872 	 122.721 	 
H 	 -66.8642 	 55.9054 	 127.962 	 
H 	 -58.4547 	 56.7625 	 127.838 	 
