34

S 	 2.49917 	 21.4238 	 51.4696 	 
C 	 2.34986 	 20.6152 	 49.8659 	 
C 	 1.0534 	 20.2902 	 49.5339 	 
C 	 0.237894 	 20.5666 	 50.6653 	 
C 	 0.786458 	 21.0477 	 51.819 	 
H 	 -0.851035 	 20.2941 	 50.7068 	 
C 	 0.604247 	 19.7826 	 48.1568 	 
H 	 1.19852 	 20.3293 	 47.3994 	 
H 	 -0.463789 	 19.9559 	 47.9862 	 
C 	 0.870376 	 18.2739 	 48.1008 	 
H 	 1.94293 	 18.0513 	 48.2899 	 
H 	 0.400849 	 17.8742 	 48.9494 	 
C 	 0.13421 	 17.724 	 46.901 	 
H 	 -0.948564 	 17.9531 	 46.8461 	 
H 	 0.536879 	 18.0155 	 45.9829 	 
H 	 0.171656 	 16.6865 	 46.8772 	 
S 	 1.17632 	 20.8576 	 54.4669 	 
C 	 0.115527 	 21.7315 	 55.5994 	 
C 	 -0.961697 	 22.3314 	 54.948 	 
C 	 -0.865627 	 22.1618 	 53.5075 	 
C 	 0.143704 	 21.2705 	 53.1039 	 
H 	 -1.60031 	 23.0093 	 55.3981 	 
C 	 -1.77411 	 22.845 	 52.5512 	 
H 	 -2.78655 	 22.6784 	 52.8273 	 
H 	 -1.71319 	 22.4145 	 51.5714 	 
C 	 -1.52011 	 24.2985 	 52.3864 	 
H 	 -1.4794 	 24.8686 	 53.2932 	 
H 	 -2.41933 	 24.7587 	 51.9301 	 
C 	 -0.292519 	 24.5518 	 51.5165 	 
H 	 -0.287335 	 25.5971 	 51.4075 	 
H 	 -0.369593 	 24.0528 	 50.5161 	 
H 	 0.703292 	 24.3594 	 51.9408 	 
H 	 3.2216 	 20.4207 	 49.2847 	 
H 	 0.196938 	 21.7505 	 56.6734 	 
