34

S 	 -14.5482 	 38.4026 	 56.3473 	 
C 	 -12.9561 	 39.0245 	 56.1722 	 
C 	 -12.669 	 39.4066 	 54.8855 	 
C 	 -13.6968 	 39.0461 	 53.9932 	 
C 	 -14.795 	 38.4743 	 54.568 	 
H 	 -13.7607 	 39.1394 	 52.946 	 
C 	 -11.3837 	 40.0343 	 54.4137 	 
H 	 -10.9208 	 39.2796 	 53.7876 	 
H 	 -10.6636 	 40.2488 	 55.2385 	 
C 	 -11.2901 	 41.4208 	 53.7503 	 
H 	 -10.252 	 41.7096 	 53.7808 	 
H 	 -11.5124 	 41.4865 	 52.6587 	 
C 	 -12.0404 	 42.5185 	 54.5235 	 
H 	 -11.8697 	 43.4802 	 54.0358 	 
H 	 -13.1135 	 42.3743 	 54.6495 	 
H 	 -11.63 	 42.8161 	 55.4727 	 
S 	 -17.4606 	 38.8132 	 54.4244 	 
C 	 -18.418 	 37.6021 	 53.5686 	 
C 	 -17.638 	 36.9204 	 52.6543 	 
C 	 -16.2404 	 37.0276 	 52.9689 	 
C 	 -16.0126 	 37.9313 	 53.9683 	 
H 	 -18.0502 	 36.2801 	 51.9438 	 
C 	 -15.1113 	 36.2667 	 52.2906 	 
H 	 -14.1888 	 36.7407 	 52.6857 	 
H 	 -15.0532 	 36.5186 	 51.1808 	 
C 	 -15.2458 	 34.7424 	 52.4707 	 
H 	 -16.2317 	 34.4345 	 51.9579 	 
H 	 -15.3505 	 34.5224 	 53.5523 	 
C 	 -14.0497 	 34.0075 	 51.8366 	 
H 	 -13.1169 	 34.6069 	 52.1335 	 
H 	 -14.0847 	 33.9393 	 50.7599 	 
H 	 -13.7982 	 33.0535 	 52.3243 	 
H 	 -12.3088 	 39.2512 	 56.9964 	 
H 	 -19.4593 	 37.7121 	 53.466 	 
