34

S 	 1.33443 	 3.68796 	 83.0143 	 
C 	 2.64517 	 4.20737 	 81.9664 	 
C 	 2.18786 	 4.5597 	 80.7412 	 
C 	 0.754801 	 4.6118 	 80.7261 	 
C 	 0.149543 	 4.24737 	 81.9247 	 
H 	 0.0432845 	 4.94897 	 79.9245 	 
C 	 3.02342 	 5.00789 	 79.5839 	 
H 	 3.75333 	 5.69214 	 80.0145 	 
H 	 2.35279 	 5.50981 	 78.874 	 
C 	 3.82647 	 3.90029 	 79.0271 	 
H 	 4.411 	 3.45509 	 79.8516 	 
H 	 3.09921 	 3.14039 	 78.5329 	 
C 	 4.76168 	 4.47188 	 77.9432 	 
H 	 5.31845 	 3.78485 	 77.358 	 
H 	 4.24204 	 5.15059 	 77.2654 	 
H 	 5.52662 	 5.20795 	 78.3362 	 
S 	 -1.71299 	 2.37128 	 82.7828 	 
C 	 -3.38665 	 2.74133 	 82.6796 	 
C 	 -3.54086 	 4.10631 	 82.5594 	 
C 	 -2.34269 	 4.8676 	 82.3353 	 
C 	 -1.28169 	 3.99635 	 82.1904 	 
H 	 -4.54065 	 4.40436 	 82.6504 	 
C 	 -2.35485 	 6.42886 	 82.2145 	 
H 	 -1.56222 	 6.88068 	 82.7266 	 
H 	 -3.31604 	 6.66989 	 82.6813 	 
C 	 -2.37179 	 6.88142 	 80.7083 	 
H 	 -3.08072 	 6.30333 	 80.1559 	 
H 	 -1.38003 	 6.62329 	 80.3344 	 
C 	 -2.74171 	 8.30487 	 80.533 	 
H 	 -2.00751 	 8.94327 	 81.0282 	 
H 	 -3.67503 	 8.56055 	 81.0609 	 
H 	 -2.83481 	 8.54093 	 79.4625 	 
H 	 3.64812 	 3.79898 	 82.1271 	 
H 	 -4.2068 	 2.11062 	 82.9762 	 
