34

S 	 -28.4197 	 55.6091 	 112.027 	 
C 	 -26.8993 	 56.5468 	 112.165 	 
C 	 -26.4458 	 57.1309 	 110.964 	 
C 	 -27.4948 	 56.9961 	 109.996 	 
C 	 -28.6242 	 56.2544 	 110.425 	 
H 	 -27.5256 	 57.4428 	 109.013 	 
C 	 -25.1181 	 57.8232 	 110.626 	 
H 	 -24.8488 	 57.7246 	 109.524 	 
H 	 -24.315 	 57.2188 	 110.965 	 
C 	 -25.1437 	 59.2791 	 111.109 	 
H 	 -26.2269 	 59.6228 	 111.16 	 
H 	 -24.9243 	 59.2711 	 112.113 	 
C 	 -24.1976 	 60.3002 	 110.34 	 
H 	 -23.1711 	 60.2279 	 110.512 	 
H 	 -24.2975 	 60.0811 	 109.258 	 
H 	 -24.4539 	 61.3542 	 110.555 	 
S 	 -31.2905 	 56.8421 	 110.048 	 
C 	 -32.1624 	 55.9921 	 108.874 	 
C 	 -31.3999 	 55.2618 	 108.047 	 
C 	 -30.0309 	 55.3026 	 108.405 	 
C 	 -29.831 	 55.9697 	 109.6 	 
H 	 -31.9307 	 54.7764 	 107.236 	 
C 	 -29.0326 	 54.4839 	 107.687 	 
H 	 -29.5509 	 53.5279 	 107.559 	 
H 	 -28.1731 	 54.3278 	 108.314 	 
C 	 -28.6511 	 54.943 	 106.289 	 
H 	 -27.7132 	 54.5079 	 106.027 	 
H 	 -28.2804 	 55.9421 	 106.382 	 
C 	 -29.5881 	 54.6332 	 105.169 	 
H 	 -30.6128 	 54.9663 	 105.277 	 
H 	 -29.5999 	 53.5342 	 105.093 	 
H 	 -29.093 	 54.9638 	 104.3 	 
H 	 -26.3033 	 56.601 	 113.024 	 
H 	 -33.1903 	 56.0891 	 108.685 	 
