34

S 	 -37.0186 	 70.8025 	 170.635 	 
C 	 -35.8622 	 70.7281 	 171.976 	 
C 	 -36.3805 	 70.9515 	 173.224 	 
C 	 -37.7997 	 71.0939 	 173.146 	 
C 	 -38.3043 	 70.895 	 171.914 	 
H 	 -38.4475 	 71.3583 	 173.928 	 
C 	 -35.6037 	 71.1254 	 174.608 	 
H 	 -34.5828 	 70.7373 	 174.402 	 
H 	 -36.0037 	 70.535 	 175.391 	 
C 	 -35.5788 	 72.6495 	 174.972 	 
H 	 -35.5237 	 73.0725 	 173.992 	 
H 	 -36.5384 	 73.0009 	 175.355 	 
C 	 -34.4833 	 73.1366 	 175.95 	 
H 	 -34.4194 	 72.6763 	 176.965 	 
H 	 -33.5397 	 72.9147 	 175.577 	 
H 	 -34.3541 	 74.2311 	 175.988 	 
S 	 -40.9001 	 71.1415 	 172.868 	 
C 	 -42.1248 	 70.2391 	 172.096 	 
C 	 -41.7002 	 69.5881 	 170.956 	 
C 	 -40.327 	 69.722 	 170.752 	 
C 	 -39.7575 	 70.5831 	 171.711 	 
H 	 -42.3781 	 68.9358 	 170.411 	 
C 	 -39.5835 	 68.9163 	 169.749 	 
H 	 -38.6976 	 69.3786 	 169.468 	 
H 	 -40.2397 	 68.9971 	 168.892 	 
C 	 -39.335 	 67.4519 	 170.093 	 
H 	 -38.8164 	 66.9213 	 169.305 	 
H 	 -40.3102 	 66.9338 	 170.203 	 
C 	 -38.3008 	 67.33 	 171.18 	 
H 	 -37.3659 	 67.7525 	 170.854 	 
H 	 -38.0075 	 66.255 	 171.357 	 
H 	 -38.5488 	 67.9019 	 172.054 	 
H 	 -34.8475 	 70.6141 	 171.741 	 
H 	 -43.1423 	 69.9424 	 172.488 	 
