34

S 	 8.1022 	 78.0011 	 45.8645 	 
C 	 8.88993 	 76.4935 	 46.4633 	 
C 	 7.98523 	 75.7092 	 47.0816 	 
C 	 6.78135 	 76.3804 	 47.4313 	 
C 	 6.6669 	 77.6296 	 46.8419 	 
H 	 5.96634 	 76.0003 	 48.0263 	 
C 	 8.43678 	 74.3385 	 47.5877 	 
H 	 7.91347 	 73.8731 	 48.4274 	 
H 	 9.47619 	 74.3578 	 47.8784 	 
C 	 8.40366 	 73.3472 	 46.4357 	 
H 	 7.33998 	 73.3355 	 46.142 	 
H 	 8.98321 	 73.6556 	 45.6123 	 
C 	 8.94841 	 71.9396 	 46.7437 	 
H 	 8.7887 	 71.3153 	 45.8533 	 
H 	 10.0587 	 72.0188 	 46.9055 	 
H 	 8.46131 	 71.5084 	 47.6353 	 
S 	 6.14411 	 80.2362 	 47.5849 	 
C 	 4.49474 	 80.6463 	 48.0102 	 
C 	 3.58799 	 79.6009 	 47.6436 	 
C 	 4.23149 	 78.4221 	 47.1597 	 
C 	 5.61307 	 78.5956 	 47.0456 	 
H 	 2.49134 	 79.7147 	 47.6735 	 
C 	 3.39947 	 77.1976 	 46.7467 	 
H 	 4.01551 	 76.4351 	 46.2654 	 
H 	 2.69145 	 77.5659 	 45.9975 	 
C 	 2.56156 	 76.5133 	 47.8105 	 
H 	 1.72461 	 76.088 	 47.2225 	 
H 	 2.18788 	 77.1952 	 48.5273 	 
C 	 3.25319 	 75.345 	 48.607 	 
H 	 3.91208 	 74.7983 	 47.9904 	 
H 	 2.67716 	 74.6591 	 49.2157 	 
H 	 4.02118 	 75.7221 	 49.3227 	 
H 	 9.74978 	 76.1453 	 46.0562 	 
H 	 4.06873 	 81.614 	 48.4302 	 
