34

S 	 44.9921 	 12.448 	 74.9444 	 
C 	 43.4139 	 12.0767 	 74.1699 	 
C 	 42.5811 	 13.1645 	 74.1199 	 
C 	 43.1915 	 14.3147 	 74.7046 	 
C 	 44.4077 	 14.0681 	 75.2658 	 
H 	 42.701 	 15.3015 	 74.7774 	 
C 	 41.2194 	 13.2136 	 73.5384 	 
H 	 40.4675 	 13.3496 	 74.3577 	 
H 	 41.0504 	 12.0972 	 73.2621 	 
C 	 40.9171 	 14.0973 	 72.2976 	 
H 	 41.2504 	 15.1099 	 72.5941 	 
H 	 41.376 	 13.7043 	 71.3503 	 
C 	 39.4015 	 14.0872 	 72.0316 	 
H 	 38.8951 	 14.0964 	 73.0071 	 
H 	 39.1989 	 15.0021 	 71.4838 	 
H 	 39.0199 	 13.166 	 71.4803 	 
S 	 46.8761 	 15.3327 	 75.2771 	 
C 	 47.2358 	 16.4832 	 76.4515 	 
C 	 46.0939 	 16.9276 	 77.0265 	 
C 	 44.9945 	 16.0729 	 76.8322 	 
C 	 45.2236 	 15.1013 	 75.9328 	 
H 	 46.1426 	 17.7685 	 77.7129 	 
C 	 43.5855 	 16.4079 	 77.2628 	 
H 	 43.6312 	 16.6979 	 78.3263 	 
H 	 43.0193 	 15.442 	 77.2645 	 
C 	 42.85 	 17.5076 	 76.5673 	 
H 	 43.2009 	 17.3691 	 75.4968 	 
H 	 43.1869 	 18.4535 	 76.8895 	 
C 	 41.3363 	 17.4367 	 76.6284 	 
H 	 40.9059 	 17.5289 	 77.6153 	 
H 	 41.0168 	 16.4393 	 76.2938 	 
H 	 40.9183 	 18.2484 	 76.0509 	 
H 	 43.1873 	 11.0908 	 73.6755 	 
H 	 48.105 	 17.0573 	 76.507 	 
