34

S 	 -59.3491 	 17.5043 	 84.4553 	 
C 	 -57.6806 	 17.1434 	 84.0572 	 
C 	 -56.8391 	 17.5881 	 85.0163 	 
C 	 -57.5525 	 18.1005 	 86.1348 	 
C 	 -58.8694 	 17.9467 	 86.0549 	 
H 	 -57.1171 	 18.5177 	 87.0414 	 
C 	 -55.3025 	 17.3062 	 85.0222 	 
H 	 -55.1565 	 16.3534 	 84.604 	 
H 	 -54.9029 	 17.1338 	 86.0629 	 
C 	 -54.5373 	 18.5234 	 84.3744 	 
H 	 -53.5385 	 18.2219 	 84.3386 	 
H 	 -54.8421 	 18.6915 	 83.3322 	 
C 	 -54.6341 	 19.8664 	 85.1733 	 
H 	 -54.3698 	 19.7139 	 86.2252 	 
H 	 -54.0643 	 20.6484 	 84.6688 	 
H 	 -55.697 	 20.1509 	 85.2427 	 
S 	 -60.7242 	 19.9339 	 86.193 	 
C 	 -61.3905 	 20.4402 	 87.7259 	 
C 	 -60.773 	 19.8469 	 88.8236 	 
C 	 -59.8163 	 18.8523 	 88.3709 	 
C 	 -59.7322 	 18.691 	 86.9435 	 
H 	 -61.2497 	 20.1042 	 89.7699 	 
C 	 -59.0102 	 17.9986 	 89.4072 	 
H 	 -58.4093 	 18.6503 	 89.9895 	 
H 	 -58.2414 	 17.3591 	 88.9268 	 
C 	 -60.0009 	 17.1555 	 90.3741 	 
H 	 -60.8048 	 16.7547 	 89.8258 	 
H 	 -60.445 	 17.9679 	 90.8885 	 
C 	 -59.3747 	 16.2142 	 91.403 	 
H 	 -60.0983 	 15.8397 	 92.0912 	 
H 	 -58.5981 	 16.6051 	 92.0346 	 
H 	 -58.9607 	 15.3854 	 90.7595 	 
H 	 -57.5019 	 16.6114 	 83.2168 	 
H 	 -62.2849 	 21.0294 	 87.9493 	 
