34

S 	 -4.23394 	 -7.77138 	 86.5328 	 
C 	 -3.6012 	 -8.71369 	 85.2124 	 
C 	 -2.87541 	 -9.7832 	 85.655 	 
C 	 -3.04042 	 -9.97882 	 87.0771 	 
C 	 -3.89665 	 -9.05366 	 87.6597 	 
H 	 -2.44454 	 -10.8036 	 87.5007 	 
C 	 -1.95739 	 -10.6343 	 84.8211 	 
H 	 -2.21634 	 -10.5081 	 83.7811 	 
H 	 -2.01495 	 -11.6644 	 85.0488 	 
C 	 -0.552076 	 -10.1172 	 84.949 	 
H 	 -0.593257 	 -9.05836 	 84.64 	 
H 	 -0.125178 	 -10.1917 	 85.9157 	 
C 	 0.349456 	 -10.928 	 84.005 	 
H 	 0.333292 	 -11.9224 	 84.3709 	 
H 	 0.123868 	 -10.8848 	 82.9323 	 
H 	 1.37956 	 -10.551 	 84.2543 	 
S 	 -5.02453 	 -10.303 	 89.7489 	 
C 	 -4.82684 	 -9.60318 	 91.3873 	 
C 	 -4.06008 	 -8.47386 	 91.3754 	 
C 	 -3.61877 	 -8.14053 	 90.0607 	 
C 	 -4.07893 	 -8.9736 	 89.1064 	 
H 	 -3.83395 	 -8.01076 	 92.3477 	 
C 	 -2.68378 	 -6.94713 	 89.8312 	 
H 	 -2.36861 	 -6.96978 	 88.8434 	 
H 	 -1.73291 	 -6.98228 	 90.3498 	 
C 	 -3.34854 	 -5.55829 	 90.2072 	 
H 	 -3.5499 	 -5.53533 	 91.24 	 
H 	 -4.33233 	 -5.63931 	 89.7176 	 
C 	 -2.58048 	 -4.32678 	 89.7514 	 
H 	 -2.59813 	 -4.23425 	 88.6792 	 
H 	 -1.59248 	 -4.25635 	 90.1813 	 
H 	 -3.04398 	 -3.47077 	 90.1433 	 
H 	 -3.66993 	 -8.34064 	 84.203 	 
H 	 -5.21169 	 -10.0586 	 92.3058 	 
