34

S 	 -0.126903 	 -24.8657 	 58.9072 	 
C 	 0.169368 	 -26.5008 	 59.4998 	 
C 	 1.46681 	 -26.8739 	 59.2287 	 
C 	 2.25931 	 -25.8274 	 58.7536 	 
C 	 1.60044 	 -24.5951 	 58.7602 	 
H 	 3.32239 	 -25.7843 	 58.5248 	 
C 	 1.98106 	 -28.2932 	 59.2992 	 
H 	 2.42247 	 -28.6196 	 58.3352 	 
H 	 1.13265 	 -29.0108 	 59.4455 	 
C 	 3.07065 	 -28.5588 	 60.3227 	 
H 	 3.37104 	 -29.615 	 60.2767 	 
H 	 4.00883 	 -28.0216 	 60.0489 	 
C 	 2.76743 	 -28.1237 	 61.7363 	 
H 	 3.00076 	 -27.1048 	 61.8925 	 
H 	 1.80574 	 -28.4593 	 62.1011 	 
H 	 3.36076 	 -28.721 	 62.4167 	 
S 	 1.48385 	 -22.6309 	 56.8874 	 
C 	 2.61132 	 -21.2736 	 56.9866 	 
C 	 3.2531 	 -21.2444 	 58.2054 	 
C 	 3.09596 	 -22.47 	 58.8985 	 
C 	 2.07896 	 -23.2534 	 58.378 	 
H 	 3.90528 	 -20.4368 	 58.4932 	 
C 	 3.79073 	 -22.7868 	 60.1765 	 
H 	 3.96139 	 -23.84 	 60.2366 	 
H 	 3.01055 	 -22.5369 	 60.8673 	 
C 	 5.0262 	 -21.9919 	 60.5588 	 
H 	 5.27445 	 -22.3041 	 61.6036 	 
H 	 4.78554 	 -20.9441 	 60.6151 	 
C 	 6.23924 	 -22.1492 	 59.7022 	 
H 	 6.86426 	 -21.3497 	 59.7862 	 
H 	 5.78504 	 -22.2057 	 58.7074 	 
H 	 6.68739 	 -23.0715 	 59.9912 	 
H 	 -0.514143 	 -27.2876 	 59.6938 	 
H 	 2.72391 	 -20.5555 	 56.2236 	 
