34

S 	 3.81453 	 -12.7936 	 58.5663 	 
C 	 4.2005 	 -13.204 	 60.2086 	 
C 	 3.52063 	 -14.3374 	 60.6684 	 
C 	 2.82686 	 -14.9624 	 59.5337 	 
C 	 3.02788 	 -14.3231 	 58.367 	 
H 	 2.35007 	 -15.9376 	 59.6169 	 
C 	 3.4107 	 -14.8306 	 62.1454 	 
H 	 2.53857 	 -14.2973 	 62.5415 	 
H 	 4.32378 	 -14.4404 	 62.6228 	 
C 	 3.50171 	 -16.3719 	 62.4113 	 
H 	 3.70783 	 -16.6512 	 63.4371 	 
H 	 2.64157 	 -16.9077 	 62.0306 	 
C 	 4.59015 	 -17.0637 	 61.5852 	 
H 	 5.53147 	 -16.4813 	 61.494 	 
H 	 4.84092 	 -18.016 	 62.1154 	 
H 	 4.18117 	 -17.2816 	 60.6041 	 
S 	 1.46689 	 -13.8413 	 56.2929 	 
C 	 1.32359 	 -14.9255 	 54.9896 	 
C 	 2.15516 	 -16.0074 	 55.1943 	 
C 	 2.95054 	 -15.9459 	 56.3744 	 
C 	 2.66536 	 -14.8105 	 57.02 	 
H 	 2.0563 	 -16.8672 	 54.5607 	 
C 	 3.83046 	 -17.1451 	 56.8434 	 
H 	 3.56696 	 -18.065 	 56.3231 	 
H 	 3.79736 	 -17.1497 	 57.9571 	 
C 	 5.29248 	 -16.9463 	 56.3851 	 
H 	 5.1933 	 -16.6723 	 55.2979 	 
H 	 5.77851 	 -17.9265 	 56.3759 	 
C 	 6.07889 	 -15.9471 	 57.249 	 
H 	 6.44227 	 -16.5535 	 58.1868 	 
H 	 5.40103 	 -15.1386 	 57.4382 	 
H 	 6.91203 	 -15.6337 	 56.6545 	 
H 	 4.79872 	 -12.5134 	 60.8305 	 
H 	 0.688332 	 -14.6251 	 54.1553 	 
