34

S 	 -3.20156 	 -16.0201 	 85.2499 	 
C 	 -2.64077 	 -16.5726 	 83.6217 	 
C 	 -1.45933 	 -15.9947 	 83.3562 	 
C 	 -1.13062 	 -14.9818 	 84.3149 	 
C 	 -1.99548 	 -14.7817 	 85.3775 	 
H 	 -0.272285 	 -14.3901 	 84.3217 	 
C 	 -0.499942 	 -16.2765 	 82.1738 	 
H 	 -0.681798 	 -15.4463 	 81.5348 	 
H 	 -0.850024 	 -17.1053 	 81.5457 	 
C 	 1.00526 	 -16.4446 	 82.4393 	 
H 	 1.52339 	 -16.3875 	 81.5175 	 
H 	 1.37961 	 -15.5093 	 82.93 	 
C 	 1.49037 	 -17.6106 	 83.138 	 
H 	 1.25068 	 -18.5157 	 82.5614 	 
H 	 2.58227 	 -17.5291 	 83.1826 	 
H 	 1.04755 	 -17.5518 	 84.157 	 
S 	 -1.89319 	 -14.2362 	 88.0311 	 
C 	 -1.69551 	 -12.6021 	 88.6466 	 
C 	 -1.82563 	 -11.7062 	 87.5557 	 
C 	 -2.13467 	 -12.3778 	 86.2854 	 
C 	 -1.987 	 -13.7562 	 86.4098 	 
H 	 -1.92004 	 -10.6503 	 87.839 	 
C 	 -2.31769 	 -11.4936 	 85.0177 	 
H 	 -3.25649 	 -10.8848 	 85.1842 	 
H 	 -2.56623 	 -12.0229 	 84.0964 	 
C 	 -1.10671 	 -10.6181 	 84.7247 	 
H 	 -1.00108 	 -10.0093 	 85.6261 	 
H 	 -1.40073 	 -9.96942 	 83.8546 	 
C 	 0.128851 	 -11.3593 	 84.3372 	 
H 	 0.510147 	 -12.1036 	 85.0332 	 
H 	 0.87392 	 -10.616 	 84.3586 	 
H 	 0.137596 	 -11.7753 	 83.3357 	 
H 	 -3.14762 	 -17.4076 	 83.0611 	 
H 	 -1.55782 	 -12.2907 	 89.6765 	 
