34

S 	 -30.2299 	 30.8554 	 42.7577 	 
C 	 -30.2591 	 30.2672 	 44.3962 	 
C 	 -31.5295 	 30.3104 	 44.9182 	 
C 	 -32.4744 	 30.7763 	 43.9822 	 
C 	 -31.9364 	 31.0092 	 42.7181 	 
H 	 -33.5283 	 30.8866 	 44.1194 	 
C 	 -31.9511 	 29.9846 	 46.3439 	 
H 	 -31.7351 	 28.9819 	 46.7182 	 
H 	 -33.0397 	 30.0268 	 46.3293 	 
C 	 -31.6974 	 31.0092 	 47.4449 	 
H 	 -32.0641 	 31.9468 	 47.1989 	 
H 	 -32.1667 	 30.7292 	 48.3791 	 
C 	 -30.2341 	 31.4076 	 47.6473 	 
H 	 -29.8756 	 31.6699 	 46.6715 	 
H 	 -30.1506 	 32.3289 	 48.2969 	 
H 	 -29.5061 	 30.6273 	 48.0551 	 
S 	 -31.8306 	 32.961 	 40.7016 	 
C 	 -33.3446 	 33.2393 	 39.6572 	 
C 	 -34.3557 	 32.3906 	 39.9728 	 
C 	 -33.9822 	 31.4876 	 41.0457 	 
C 	 -32.6966 	 31.6513 	 41.5904 	 
H 	 -35.2621 	 32.4587 	 39.4377 	 
C 	 -34.8333 	 30.2993 	 41.451 	 
H 	 -35.8091 	 30.292 	 40.9255 	 
H 	 -35.1423 	 30.4156 	 42.5083 	 
C 	 -34.2105 	 28.8476 	 41.3493 	 
H 	 -33.2428 	 28.7213 	 41.9386 	 
H 	 -34.1046 	 28.4777 	 40.3136 	 
C 	 -34.9606 	 27.7851 	 42.076 	 
H 	 -34.8767 	 27.9401 	 43.1964 	 
H 	 -34.4736 	 26.7952 	 41.8084 	 
H 	 -35.9271 	 27.727 	 41.7474 	 
H 	 -29.3318 	 29.9095 	 44.836 	 
H 	 -33.4011 	 33.8492 	 38.793 	 
