34

S 	 43.4994 	 11.861 	 85.9182 	 
C 	 44.3489 	 11.2869 	 84.5365 	 
C 	 44.3652 	 12.1967 	 83.4763 	 
C 	 43.4282 	 13.2914 	 83.7525 	 
C 	 42.8414 	 13.1855 	 84.999 	 
H 	 43.2596 	 14.2198 	 83.2364 	 
C 	 45.1288 	 12.1499 	 82.2064 	 
H 	 45.7721 	 11.2159 	 82.0997 	 
H 	 45.8577 	 12.9606 	 82.0832 	 
C 	 44.1984 	 12.1931 	 81.0147 	 
H 	 43.3697 	 11.4963 	 81.0617 	 
H 	 43.8034 	 13.2036 	 80.8719 	 
C 	 44.9548 	 11.9003 	 79.7216 	 
H 	 45.9084 	 12.3987 	 79.769 	 
H 	 45.1253 	 10.8286 	 79.5732 	 
H 	 44.3285 	 12.2204 	 78.9065 	 
S 	 42.7458 	 15.2056 	 86.9037 	 
C 	 41.3384 	 16.2599 	 87.0976 	 
C 	 40.3924 	 15.9504 	 86.1198 	 
C 	 40.7776 	 14.825 	 85.3148 	 
C 	 42.0082 	 14.2152 	 85.6648 	 
H 	 39.5408 	 16.6265 	 85.97 	 
C 	 39.8571 	 14.4044 	 84.1615 	 
H 	 40.4803 	 14.3223 	 83.2944 	 
H 	 39.1722 	 15.2661 	 84.0579 	 
C 	 39.2342 	 13.0189 	 84.3524 	 
H 	 39.2115 	 12.8367 	 85.4084 	 
H 	 39.8789 	 12.2726 	 83.9225 	 
C 	 37.8756 	 12.9625 	 83.6503 	 
H 	 37.6019 	 11.9524 	 83.6302 	 
H 	 37.9714 	 13.2422 	 82.5934 	 
H 	 37.1117 	 13.6085 	 84.0324 	 
H 	 44.9633 	 10.4878 	 84.5409 	 
H 	 41.1496 	 17.0445 	 87.8368 	 
