34

S 	 -40.4914 	 52.2262 	 100.146 	 
C 	 -40.2761 	 53.6206 	 101.29 	 
C 	 -39.9144 	 53.1836 	 102.544 	 
C 	 -39.8999 	 51.7893 	 102.668 	 
C 	 -40.2831 	 51.1677 	 101.542 	 
H 	 -39.5177 	 51.2919 	 103.574 	 
C 	 -39.7358 	 54.0651 	 103.744 	 
H 	 -39.82 	 55.0877 	 103.501 	 
H 	 -38.725 	 53.8851 	 104.072 	 
C 	 -40.5877 	 53.838 	 105.005 	 
H 	 -40.3385 	 52.8036 	 105.427 	 
H 	 -40.4643 	 54.6003 	 105.803 	 
C 	 -42.0657 	 53.78 	 104.619 	 
H 	 -42.1563 	 52.7146 	 104.409 	 
H 	 -42.6777 	 53.8626 	 105.467 	 
H 	 -42.5703 	 54.5477 	 103.951 	 
S 	 -40.1523 	 48.9851 	 99.9475 	 
C 	 -40.7626 	 47.4747 	 100.514 	 
C 	 -40.9556 	 47.4659 	 101.832 	 
C 	 -40.9104 	 48.7626 	 102.45 	 
C 	 -40.5327 	 49.7117 	 101.573 	 
H 	 -41.2101 	 46.6329 	 102.447 	 
C 	 -41.1005 	 48.9535 	 103.959 	 
H 	 -41.9436 	 48.2665 	 104.29 	 
H 	 -41.4848 	 49.9459 	 104.08 	 
C 	 -39.9156 	 48.6553 	 104.786 	 
H 	 -39.0408 	 49.0254 	 104.254 	 
H 	 -39.9069 	 47.5956 	 104.871 	 
C 	 -40.1057 	 49.242 	 106.186 	 
H 	 -39.3461 	 48.9033 	 106.919 	 
H 	 -41.1418 	 49.0925 	 106.59 	 
H 	 -39.9122 	 50.3185 	 106.117 	 
H 	 -40.4352 	 54.6856 	 101.051 	 
H 	 -40.7744 	 46.5559 	 99.9621 	 
