34

S 	 -67.7344 	 38.6853 	 127.407 	 
C 	 -67.5861 	 38.7469 	 129.239 	 
C 	 -68.6985 	 39.3223 	 129.756 	 
C 	 -69.777 	 39.444 	 128.846 	 
C 	 -69.4096 	 39.0633 	 127.576 	 
H 	 -70.7793 	 39.6993 	 129.107 	 
C 	 -68.8511 	 39.5136 	 131.241 	 
H 	 -69.8085 	 39.1195 	 131.428 	 
H 	 -68.9056 	 40.5622 	 131.36 	 
C 	 -67.853 	 38.7688 	 132.154 	 
H 	 -67.8812 	 37.7163 	 131.937 	 
H 	 -66.9255 	 39.141 	 131.936 	 
C 	 -68.0603 	 39.02 	 133.635 	 
H 	 -68.9668 	 38.6466 	 134.129 	 
H 	 -67.3002 	 38.5565 	 134.215 	 
H 	 -68.0572 	 40.1404 	 133.71 	 
S 	 -71.1519 	 40.556 	 126.029 	 
C 	 -71.9574 	 39.7156 	 124.728 	 
C 	 -71.659 	 38.3864 	 124.616 	 
C 	 -70.7496 	 37.9608 	 125.631 	 
C 	 -70.3525 	 39.0469 	 126.457 	 
H 	 -72.1789 	 37.748 	 123.853 	 
C 	 -70.3347 	 36.5235 	 125.913 	 
H 	 -71.3117 	 36.1533 	 126.298 	 
H 	 -69.6325 	 36.4773 	 126.779 	 
C 	 -69.5978 	 35.8109 	 124.832 	 
H 	 -68.6573 	 36.3421 	 124.835 	 
H 	 -70.0432 	 35.9604 	 123.879 	 
C 	 -69.3573 	 34.2677 	 125.252 	 
H 	 -70.2974 	 33.8025 	 125.664 	 
H 	 -68.65 	 34.1492 	 126.04 	 
H 	 -69.007 	 33.5429 	 124.506 	 
H 	 -66.6214 	 38.691 	 129.773 	 
H 	 -72.7783 	 40.189 	 124.194 	 
