34

S 	 -40.3997 	 31.2302 	 83.0284 	 
C 	 -40.0134 	 32.8674 	 82.4258 	 
C 	 -40.8667 	 33.2788 	 81.4015 	 
C 	 -41.7528 	 32.2222 	 81.0328 	 
C 	 -41.6527 	 31.0896 	 81.7993 	 
H 	 -42.3631 	 32.2281 	 80.1695 	 
C 	 -40.84 	 34.6021 	 80.7314 	 
H 	 -41.1416 	 35.4121 	 81.4535 	 
H 	 -41.6857 	 34.6103 	 80.0364 	 
C 	 -39.6957 	 35.0634 	 79.9311 	 
H 	 -38.7866 	 35.1481 	 80.4684 	 
H 	 -39.4605 	 34.3424 	 79.1611 	 
C 	 -39.9361 	 36.4214 	 79.2596 	 
H 	 -39.0182 	 36.6978 	 78.7071 	 
H 	 -40.788 	 36.2973 	 78.6683 	 
H 	 -40.2142 	 37.219 	 80.0467 	 
S 	 -41.7028 	 28.3858 	 81.4123 	 
C 	 -43.2846 	 27.5638 	 81.5167 	 
C 	 -44.3386 	 28.3979 	 81.6923 	 
C 	 -43.9455 	 29.7762 	 81.7544 	 
C 	 -42.5468 	 29.9153 	 81.7193 	 
H 	 -45.2855 	 27.9781 	 81.7938 	 
C 	 -44.9479 	 30.9203 	 81.8792 	 
H 	 -44.4245 	 31.7983 	 81.6799 	 
H 	 -45.1877 	 30.9262 	 82.8871 	 
C 	 -46.2447 	 30.8073 	 81.0269 	 
H 	 -46.9517 	 31.6126 	 81.485 	 
H 	 -46.6797 	 29.837 	 81.2502 	 
C 	 -45.9477 	 31.0158 	 79.5429 	 
H 	 -45.4974 	 32.0297 	 79.4496 	 
H 	 -46.8304 	 30.9886 	 78.9078 	 
H 	 -45.4001 	 30.1067 	 79.1719 	 
H 	 -39.3999 	 33.5616 	 83.0157 	 
H 	 -43.448 	 26.4545 	 81.5585 	 
