34

S 	 -98.1916 	 37.1359 	 122.75 	 
C 	 -97.2319 	 36.3465 	 123.988 	 
C 	 -96.3629 	 37.176 	 124.652 	 
C 	 -96.4867 	 38.5126 	 124.16 	 
C 	 -97.4551 	 38.6883 	 123.192 	 
H 	 -95.9889 	 39.4662 	 124.523 	 
C 	 -95.3627 	 36.7755 	 125.819 	 
H 	 -94.6376 	 37.5377 	 125.897 	 
H 	 -94.7911 	 35.9401 	 125.486 	 
C 	 -95.9825 	 36.6349 	 127.207 	 
H 	 -96.3039 	 37.5873 	 127.612 	 
H 	 -96.8782 	 36.0088 	 127.204 	 
C 	 -94.9073 	 36.2563 	 128.282 	 
H 	 -94.5316 	 35.2714 	 128.105 	 
H 	 -94.1393 	 36.9929 	 128.094 	 
H 	 -95.2298 	 36.3982 	 129.348 	 
S 	 -98.4094 	 40.0683 	 121.068 	 
C 	 -98.7916 	 41.7606 	 121.154 	 
C 	 -98.4498 	 42.3147 	 122.396 	 
C 	 -97.9329 	 41.2482 	 123.247 	 
C 	 -97.9022 	 39.9869 	 122.721 	 
H 	 -98.703 	 43.256 	 122.683 	 
C 	 -97.7328 	 41.6345 	 124.653 	 
H 	 -96.7288 	 42.06 	 124.764 	 
H 	 -97.8316 	 40.7155 	 125.258 	 
C 	 -98.8377 	 42.6006 	 125.202 	 
H 	 -98.8341 	 43.5838 	 124.799 	 
H 	 -98.6092 	 42.6662 	 126.246 	 
C 	 -100.25 	 42.0406 	 125.009 	 
H 	 -100.935 	 42.3647 	 125.769 	 
H 	 -100.27 	 40.9316 	 125.071 	 
H 	 -100.673 	 42.3215 	 124.008 	 
H 	 -97.3393 	 35.3012 	 124.274 	 
H 	 -99.2241 	 42.3288 	 120.334 	 
