34

S 	 14.7921 	 -9.98277 	 80.1318 	 
C 	 14.8184 	 -8.57717 	 79.1391 	 
C 	 14.9676 	 -8.88617 	 77.7997 	 
C 	 15.0013 	 -10.2787 	 77.5686 	 
C 	 14.8768 	 -10.9893 	 78.747 	 
H 	 15.3043 	 -10.8669 	 76.8014 	 
C 	 14.7283 	 -7.85895 	 76.7178 	 
H 	 14.0812 	 -7.03215 	 77.004 	 
H 	 14.3504 	 -8.36898 	 75.9003 	 
C 	 16.0373 	 -7.18165 	 76.1856 	 
H 	 15.7404 	 -6.30799 	 75.6216 	 
H 	 16.669 	 -6.79591 	 77.01 	 
C 	 17.0059 	 -8.19587 	 75.4253 	 
H 	 16.5715 	 -8.75537 	 74.5562 	 
H 	 17.9112 	 -7.73677 	 75.0609 	 
H 	 17.3381 	 -8.88496 	 76.2109 	 
S 	 13.492 	 -13.2814 	 79.4525 	 
C 	 14.3035 	 -14.8818 	 79.3043 	 
C 	 15.5508 	 -14.7527 	 78.7651 	 
C 	 15.8988 	 -13.4113 	 78.5247 	 
C 	 14.9694 	 -12.4743 	 78.9341 	 
H 	 16.1456 	 -15.6416 	 78.5385 	 
C 	 17.2204 	 -12.9866 	 77.9494 	 
H 	 17.1674 	 -11.985 	 77.4297 	 
H 	 17.5546 	 -13.5645 	 77.0974 	 
C 	 18.3939 	 -12.9444 	 78.9547 	 
H 	 18.5297 	 -13.997 	 79.3685 	 
H 	 18.2509 	 -12.2293 	 79.7356 	 
C 	 19.8145 	 -12.6912 	 78.3209 	 
H 	 20.5711 	 -12.7012 	 79.0719 	 
H 	 19.7414 	 -11.7479 	 77.821 	 
H 	 20.086 	 -13.4426 	 77.686 	 
H 	 14.6027 	 -7.58687 	 79.5461 	 
H 	 13.8289 	 -15.8227 	 79.4605 	 
