34

S 	 -13.0813 	 59.1515 	 54.5133 	 
C 	 -12.0399 	 59.1491 	 53.0305 	 
C 	 -11.0609 	 60.135 	 53.0858 	 
C 	 -11.2975 	 60.9606 	 54.2224 	 
C 	 -12.2543 	 60.5864 	 55.1366 	 
H 	 -10.7421 	 61.8916 	 54.4112 	 
C 	 -9.96989 	 60.3699 	 52.0694 	 
H 	 -10.4827 	 60.4141 	 51.0273 	 
H 	 -9.23555 	 59.5418 	 52.0499 	 
C 	 -9.20763 	 61.725 	 52.2243 	 
H 	 -8.82265 	 61.9208 	 51.2187 	 
H 	 -9.82115 	 62.6111 	 52.4733 	 
C 	 -7.99339 	 61.6561 	 53.1846 	 
H 	 -8.27855 	 61.3461 	 54.2279 	 
H 	 -7.37822 	 60.7897 	 52.8499 	 
H 	 -7.30556 	 62.5169 	 53.1122 	 
S 	 -12.6933 	 60.1655 	 57.842 	 
C 	 -13.037 	 61.5241 	 58.8562 	 
C 	 -12.941 	 62.7153 	 58.1192 	 
C 	 -12.7121 	 62.6005 	 56.6938 	 
C 	 -12.6134 	 61.247 	 56.4121 	 
H 	 -13.0863 	 63.6509 	 58.6098 	 
C 	 -12.6236 	 63.7897 	 55.7493 	 
H 	 -13.5986 	 64.1797 	 55.7201 	 
H 	 -12.276 	 63.4062 	 54.7428 	 
C 	 -11.653 	 64.9938 	 56.1999 	 
H 	 -11.7042 	 65.2459 	 57.2579 	 
H 	 -12.1134 	 65.8065 	 55.6589 	 
C 	 -10.1605 	 64.7891 	 55.7247 	 
H 	 -9.6122 	 65.7018 	 55.7352 	 
H 	 -10.168 	 64.4803 	 54.6711 	 
H 	 -9.65846 	 64.0398 	 56.3608 	 
H 	 -12.1638 	 58.4785 	 52.2036 	 
H 	 -13.197 	 61.5354 	 59.9223 	 
