34

S 	 -79.1035 	 43.6794 	 138.285 	 
C 	 -78.7467 	 41.9447 	 138.385 	 
C 	 -78.0201 	 41.5032 	 137.301 	 
C 	 -77.5931 	 42.5356 	 136.426 	 
C 	 -78.2666 	 43.7148 	 136.698 	 
H 	 -76.8957 	 42.4542 	 135.572 	 
C 	 -77.4254 	 40.1177 	 137.204 	 
H 	 -77.3481 	 39.8273 	 136.21 	 
H 	 -78.0569 	 39.3411 	 137.554 	 
C 	 -75.9927 	 39.8845 	 137.694 	 
H 	 -75.8315 	 39.8946 	 138.789 	 
H 	 -75.6189 	 38.8851 	 137.417 	 
C 	 -74.9033 	 40.8947 	 137.101 	 
H 	 -74.6982 	 40.7533 	 136.069 	 
H 	 -74.9768 	 41.9512 	 137.372 	 
H 	 -73.9386 	 40.6195 	 137.503 	 
S 	 -77.5117 	 46.3399 	 136.965 	 
C 	 -77.2786 	 47.3072 	 135.512 	 
C 	 -77.4456 	 46.5617 	 134.372 	 
C 	 -77.8955 	 45.2155 	 134.608 	 
C 	 -77.9777 	 44.9468 	 136.002 	 
H 	 -77.2675 	 47.0743 	 133.476 	 
C 	 -78.2261 	 44.2198 	 133.581 	 
H 	 -77.5673 	 43.293 	 133.625 	 
H 	 -77.9293 	 44.6328 	 132.637 	 
C 	 -79.652 	 43.6881 	 133.576 	 
H 	 -79.6992 	 42.9392 	 134.386 	 
H 	 -79.8818 	 43.2057 	 132.678 	 
C 	 -80.8099 	 44.7104 	 133.791 	 
H 	 -81.7782 	 44.1901 	 133.588 	 
H 	 -80.8242 	 45.5677 	 133.085 	 
H 	 -80.7015 	 45.2924 	 134.719 	 
H 	 -79.1397 	 41.33 	 139.257 	 
H 	 -77.0069 	 48.3394 	 135.57 	 
