34

S 	 -118.089 	 48.5624 	 132.955 	 
C 	 -119.101 	 48.4279 	 134.348 	 
C 	 -118.796 	 47.3106 	 135.097 	 
C 	 -117.859 	 46.4812 	 134.488 	 
C 	 -117.47 	 46.9602 	 133.222 	 
H 	 -117.514 	 45.49 	 134.763 	 
C 	 -119.543 	 47.0069 	 136.305 	 
H 	 -120.432 	 46.541 	 135.947 	 
H 	 -120.016 	 47.9204 	 136.689 	 
C 	 -118.734 	 46.2465 	 137.333 	 
H 	 -119.474 	 45.9334 	 138.13 	 
H 	 -118.281 	 45.2993 	 137.024 	 
C 	 -117.577 	 46.9529 	 137.901 	 
H 	 -117.099 	 46.4343 	 138.73 	 
H 	 -116.855 	 47.0624 	 137.149 	 
H 	 -117.918 	 47.9307 	 138.258 	 
S 	 -117.11 	 45.2007 	 131.097 	 
C 	 -115.594 	 45.1851 	 130.282 	 
C 	 -114.627 	 45.7582 	 131.019 	 
C 	 -115.094 	 46.4359 	 132.199 	 
C 	 -116.482 	 46.3764 	 132.296 	 
H 	 -113.649 	 45.6961 	 130.645 	 
C 	 -114.23 	 47.2444 	 133.086 	 
H 	 -113.812 	 46.595 	 133.783 	 
H 	 -114.857 	 47.9354 	 133.753 	 
C 	 -113.157 	 48.0594 	 132.391 	 
H 	 -112.509 	 47.319 	 131.897 	 
H 	 -112.447 	 48.5383 	 133.113 	 
C 	 -113.822 	 49.1395 	 131.524 	 
H 	 -114.454 	 48.7374 	 130.775 	 
H 	 -113.13 	 49.7248 	 130.9 	 
H 	 -114.423 	 49.8669 	 132.195 	 
H 	 -119.806 	 49.1708 	 134.638 	 
H 	 -115.145 	 44.5719 	 129.443 	 
