34

S 	 -72.5984 	 39.3002 	 118.634 	 
C 	 -71.05 	 39.8011 	 117.98 	 
C 	 -70.118 	 38.8166 	 118.19 	 
C 	 -70.5885 	 37.7477 	 118.978 	 
C 	 -71.9601 	 37.775 	 119.247 	 
H 	 -69.9412 	 36.8884 	 119.178 	 
C 	 -68.7654 	 38.8314 	 117.507 	 
H 	 -67.9794 	 38.6495 	 118.213 	 
H 	 -68.5359 	 39.7711 	 117.022 	 
C 	 -68.5988 	 37.7546 	 116.434 	 
H 	 -67.5465 	 37.8344 	 116.144 	 
H 	 -68.8308 	 36.7338 	 116.745 	 
C 	 -69.2716 	 38.0134 	 115.089 	 
H 	 -68.6781 	 37.772 	 114.154 	 
H 	 -70.0655 	 37.2376 	 114.942 	 
H 	 -69.7422 	 39.0205 	 115.056 	 
S 	 -74.4506 	 36.553 	 119.135 	 
C 	 -74.915 	 35.3177 	 120.314 	 
C 	 -73.8777 	 35.05 	 121.144 	 
C 	 -72.7002 	 35.8162 	 120.865 	 
C 	 -72.846 	 36.778 	 119.854 	 
H 	 -73.9649 	 34.3093 	 121.936 	 
C 	 -71.4027 	 35.6033 	 121.648 	 
H 	 -71.6777 	 35.3374 	 122.644 	 
H 	 -70.7415 	 36.5126 	 121.608 	 
C 	 -70.5879 	 34.4384 	 121.032 	 
H 	 -70.4428 	 34.5984 	 119.967 	 
H 	 -71.129 	 33.5095 	 120.991 	 
C 	 -69.1371 	 34.2198 	 121.501 	 
H 	 -68.4139 	 34.9799 	 121.177 	 
H 	 -68.7115 	 33.3279 	 121.209 	 
H 	 -69.1456 	 34.2137 	 122.582 	 
H 	 -70.896 	 40.7411 	 117.395 	 
H 	 -75.9042 	 34.8826 	 120.408 	 
