34

S 	 7.8178 	 -4.94697 	 86.1539 	 
C 	 8.25391 	 -3.94058 	 87.4853 	 
C 	 7.28139 	 -2.95395 	 87.7239 	 
C 	 6.17319 	 -3.0357 	 86.8168 	 
C 	 6.28386 	 -4.07568 	 85.9442 	 
H 	 5.27628 	 -2.43143 	 86.7496 	 
C 	 7.5601 	 -1.8527 	 88.6481 	 
H 	 7.41719 	 -0.976802 	 88.0345 	 
H 	 8.61742 	 -1.86293 	 88.7947 	 
C 	 6.49983 	 -1.62883 	 89.795 	 
H 	 6.93216 	 -1.10226 	 90.675 	 
H 	 5.65153 	 -1.18443 	 89.3326 	 
C 	 6.00807 	 -2.96639 	 90.3763 	 
H 	 5.38445 	 -3.56205 	 89.7123 	 
H 	 6.76455 	 -3.61423 	 90.8343 	 
H 	 5.36278 	 -2.66312 	 91.2151 	 
S 	 5.88581 	 -4.30748 	 83.2853 	 
C 	 4.29712 	 -4.55785 	 82.717 	 
C 	 3.37013 	 -4.76201 	 83.7358 	 
C 	 3.99858 	 -4.6811 	 85.0106 	 
C 	 5.35663 	 -4.43415 	 84.9271 	 
H 	 2.34047 	 -4.84889 	 83.4398 	 
C 	 3.1144 	 -4.79281 	 86.2409 	 
H 	 2.32968 	 -5.43611 	 85.938 	 
H 	 2.71055 	 -3.8692 	 86.4747 	 
C 	 3.81182 	 -5.34216 	 87.5184 	 
H 	 2.9908 	 -5.39727 	 88.2991 	 
H 	 4.48034 	 -4.55282 	 87.8157 	 
C 	 4.51972 	 -6.74984 	 87.3553 	 
H 	 3.90563 	 -7.52793 	 87.0487 	 
H 	 4.88958 	 -7.08855 	 88.2926 	 
H 	 5.3399 	 -6.6963 	 86.4939 	 
H 	 9.24642 	 -3.95536 	 87.9949 	 
H 	 4.01126 	 -4.58197 	 81.704 	 
