34

S 	 26.0239 	 31.3234 	 59.0826 	 
C 	 24.3481 	 30.9232 	 58.7655 	 
C 	 23.6189 	 31.954 	 58.2459 	 
C 	 24.3958 	 33.1819 	 58.354 	 
C 	 25.7156 	 32.9985 	 58.7869 	 
H 	 24.0293 	 34.1938 	 58.1372 	 
C 	 22.1763 	 31.9952 	 57.8487 	 
H 	 21.7111 	 32.8431 	 58.1643 	 
H 	 21.7593 	 31.2583 	 58.5266 	 
C 	 21.8431 	 31.7936 	 56.3457 	 
H 	 22.4023 	 32.5564 	 55.699 	 
H 	 22.2405 	 30.8414 	 56.0069 	 
C 	 20.321 	 31.7972 	 56.1419 	 
H 	 19.7281 	 31.0604 	 56.6993 	 
H 	 19.9241 	 32.714 	 56.4635 	 
H 	 20.0977 	 31.5882 	 55.154 	 
S 	 27.4134 	 34.1831 	 60.5767 	 
C 	 28.4513 	 35.5196 	 60.0957 	 
C 	 28.1759 	 35.8899 	 58.8431 	 
C 	 27.2153 	 35.0672 	 58.1478 	 
C 	 26.7679 	 33.9606 	 58.9297 	 
H 	 28.5614 	 36.7566 	 58.445 	 
C 	 26.663 	 35.4775 	 56.7899 	 
H 	 25.7651 	 34.8277 	 56.6703 	 
H 	 27.3587 	 35.1564 	 56.0647 	 
C 	 26.2231 	 36.9227 	 56.5327 	 
H 	 25.709 	 37.0826 	 55.5939 	 
H 	 27.1156 	 37.523 	 56.2937 	 
C 	 25.4617 	 37.6779 	 57.6533 	 
H 	 24.3869 	 37.3698 	 57.7804 	 
H 	 25.4782 	 38.786 	 57.629 	 
H 	 26.003 	 37.4312 	 58.5853 	 
H 	 23.8603 	 29.9641 	 58.9203 	 
H 	 28.9573 	 36.0999 	 60.831 	 
