34

S 	 55.8268 	 18.4991 	 48.8772 	 
C 	 54.3593 	 19.4124 	 48.4639 	 
C 	 53.5485 	 18.6676 	 47.642 	 
C 	 54.0161 	 17.3111 	 47.573 	 
C 	 55.2739 	 17.0324 	 48.1213 	 
H 	 53.5546 	 16.5289 	 47.0097 	 
C 	 52.3177 	 19.212 	 46.9226 	 
H 	 52.1437 	 20.1849 	 47.3573 	 
H 	 51.3921 	 18.6277 	 47.1547 	 
C 	 52.5541 	 19.3963 	 45.4257 	 
H 	 53.4336 	 18.8749 	 45.0218 	 
H 	 51.6485 	 18.9699 	 44.9572 	 
C 	 52.7221 	 20.8837 	 44.9437 	 
H 	 52.5643 	 21.0324 	 43.8597 	 
H 	 51.9562 	 21.4936 	 45.382 	 
H 	 53.6876 	 21.3533 	 45.2573 	 
S 	 57.5739 	 15.7282 	 47.4582 	 
C 	 57.8143 	 14.0615 	 47.7347 	 
C 	 56.6498 	 13.535 	 48.1937 	 
C 	 55.523 	 14.4686 	 48.3768 	 
C 	 55.9219 	 15.7745 	 48.0742 	 
H 	 56.6574 	 12.4415 	 48.286 	 
C 	 54.2023 	 14.0194 	 48.8746 	 
H 	 53.6527 	 14.8119 	 49.4329 	 
H 	 54.3671 	 13.2546 	 49.6114 	 
C 	 53.3308 	 13.3079 	 47.7686 	 
H 	 53.7891 	 12.4475 	 47.2818 	 
H 	 53.2593 	 13.9293 	 46.9534 	 
C 	 51.8749 	 12.9296 	 48.2158 	 
H 	 51.9466 	 12.1914 	 49.0733 	 
H 	 51.4293 	 12.3393 	 47.3902 	 
H 	 51.2192 	 13.7672 	 48.3273 	 
H 	 54.262 	 20.5383 	 48.6202 	 
H 	 58.6047 	 13.4383 	 47.4949 	 
