34

S 	 -37.4483 	 73.5456 	 167.039 	 
C 	 -36.9795 	 74.8697 	 165.987 	 
C 	 -36.7202 	 76.0943 	 166.666 	 
C 	 -37.0088 	 75.9583 	 168.054 	 
C 	 -37.3822 	 74.6933 	 168.428 	 
H 	 -36.9938 	 76.8185 	 168.828 	 
C 	 -36.2717 	 77.5063 	 166.124 	 
H 	 -35.4953 	 77.8036 	 166.787 	 
H 	 -36.9993 	 78.2802 	 166.251 	 
C 	 -35.7197 	 77.5953 	 164.685 	 
H 	 -34.8365 	 76.9866 	 164.582 	 
H 	 -36.4751 	 77.2617 	 163.989 	 
C 	 -35.2935 	 78.9738 	 164.338 	 
H 	 -34.9933 	 78.9902 	 163.312 	 
H 	 -36.0795 	 79.693 	 164.573 	 
H 	 -34.4562 	 79.3034 	 164.815 	 
S 	 -36.649 	 73.0404 	 170.538 	 
C 	 -37.7301 	 72.9414 	 171.925 	 
C 	 -38.7295 	 73.9368 	 171.906 	 
C 	 -38.5811 	 74.7689 	 170.748 	 
C 	 -37.7254 	 74.229 	 169.791 	 
H 	 -39.5022 	 73.9696 	 172.65 	 
C 	 -39.6356 	 75.9138 	 170.549 	 
H 	 -39.615 	 76.0729 	 169.449 	 
H 	 -39.1742 	 76.8689 	 170.9 	 
C 	 -41.0879 	 75.7153 	 171.028 	 
H 	 -41.5705 	 76.6296 	 170.947 	 
H 	 -41.0853 	 75.5415 	 172.112 	 
C 	 -41.7811 	 74.5232 	 170.392 	 
H 	 -41.3461 	 73.5949 	 170.758 	 
H 	 -41.7778 	 74.4833 	 169.316 	 
H 	 -42.9002 	 74.3995 	 170.715 	 
H 	 -36.724 	 74.6734 	 164.961 	 
H 	 -37.585 	 72.104 	 172.654 	 
