34

S 	 11.1564 	 -20.1347 	 78.9497 	 
C 	 10.1736 	 -21.3727 	 79.7587 	 
C 	 8.86318 	 -20.9829 	 79.9118 	 
C 	 8.78205 	 -19.5395 	 79.7245 	 
C 	 9.94641 	 -18.966 	 79.4365 	 
H 	 7.89814 	 -18.9654 	 79.9165 	 
C 	 7.7169 	 -21.9026 	 80.3636 	 
H 	 7.13078 	 -21.4076 	 81.1745 	 
H 	 8.17424 	 -22.6723 	 80.9965 	 
C 	 6.76308 	 -22.4306 	 79.3209 	 
H 	 6.64901 	 -21.7093 	 78.5121 	 
H 	 7.32252 	 -23.3185 	 78.9653 	 
C 	 5.3562 	 -22.7312 	 79.9348 	 
H 	 5.49414 	 -23.4598 	 80.6744 	 
H 	 4.94329 	 -21.7521 	 80.2242 	 
H 	 4.64514 	 -23.1479 	 79.1527 	 
S 	 10.6889 	 -17.2619 	 77.5215 	 
C 	 10.0107 	 -15.5898 	 77.6016 	 
C 	 9.81666 	 -15.2385 	 78.9009 	 
C 	 9.80698 	 -16.374 	 79.7913 	 
C 	 10.1164 	 -17.5661 	 79.1406 	 
H 	 9.67921 	 -14.2141 	 79.0939 	 
C 	 9.32662 	 -16.4747 	 81.2525 	 
H 	 10.1675 	 -17.103 	 81.7335 	 
H 	 8.53095 	 -17.1424 	 81.2274 	 
C 	 9.0701 	 -15.0893 	 81.889 	 
H 	 8.35627 	 -14.443 	 81.2762 	 
H 	 10.0852 	 -14.6161 	 81.9926 	 
C 	 8.4847 	 -15.0715 	 83.3188 	 
H 	 8.51975 	 -14.1413 	 83.8966 	 
H 	 8.79193 	 -15.8763 	 83.9713 	 
H 	 7.4318 	 -15.2369 	 83.2367 	 
H 	 10.3706 	 -22.4643 	 79.5849 	 
H 	 10.1998 	 -14.9474 	 76.7827 	 
