34

S 	 -37.6912 	 22.8409 	 75.5888 	 
C 	 -36.5597 	 23.3328 	 76.8193 	 
C 	 -37.0862 	 24.2762 	 77.7052 	 
C 	 -38.4823 	 24.3694 	 77.4901 	 
C 	 -39.0151 	 23.5398 	 76.5025 	 
H 	 -39.156 	 24.9083 	 78.1221 	 
C 	 -36.3695 	 25.0264 	 78.8485 	 
H 	 -36.4886 	 26.1084 	 78.646 	 
H 	 -35.3156 	 24.8456 	 78.8817 	 
C 	 -36.9349 	 24.7628 	 80.1855 	 
H 	 -38.0112 	 25.16 	 80.1911 	 
H 	 -36.8836 	 23.6608 	 80.4026 	 
C 	 -36.0149 	 25.3741 	 81.2772 	 
H 	 -36.1669 	 26.5205 	 81.3015 	 
H 	 -36.2823 	 25.0185 	 82.3166 	 
H 	 -34.9822 	 25.2007 	 81.152 	 
S 	 -41.4841 	 22.7758 	 77.4781 	 
C 	 -42.742 	 22.3698 	 76.2895 	 
C 	 -42.3991 	 22.8825 	 75.0266 	 
C 	 -41.0646 	 23.4007 	 75.0182 	 
C 	 -40.4152 	 23.319 	 76.2138 	 
H 	 -43.0107 	 22.6451 	 74.2029 	 
C 	 -40.3826 	 23.8044 	 73.6725 	 
H 	 -40.7222 	 23.0529 	 72.8957 	 
H 	 -39.2752 	 23.8056 	 73.7453 	 
C 	 -40.9421 	 25.1422 	 73.0728 	 
H 	 -41.9786 	 25.2225 	 73.3503 	 
H 	 -41.0195 	 25.0166 	 72.0181 	 
C 	 -40.2151 	 26.4292 	 73.2711 	 
H 	 -40.7413 	 26.9175 	 74.0819 	 
H 	 -40.3472 	 27.0674 	 72.408 	 
H 	 -39.1894 	 26.3064 	 73.4994 	 
H 	 -35.4807 	 23.192 	 76.7052 	 
H 	 -43.6308 	 21.8036 	 76.4436 	 
