34

S 	 44.727 	 7.34639 	 100.841 	 
C 	 46.3015 	 7.85811 	 101.216 	 
C 	 47.1524 	 7.6467 	 100.092 	 
C 	 46.4748 	 7.21638 	 98.9591 	 
C 	 45.1177 	 7.00263 	 99.1638 	 
H 	 46.945 	 7.13056 	 97.9981 	 
C 	 48.599 	 8.04388 	 99.9843 	 
H 	 48.7025 	 8.90489 	 100.745 	 
H 	 48.8343 	 8.33593 	 99.0338 	 
C 	 49.6554 	 6.94511 	 100.397 	 
H 	 49.5029 	 6.78967 	 101.459 	 
H 	 49.365 	 6.03835 	 99.8013 	 
C 	 51.1015 	 7.34476 	 100.198 	 
H 	 51.5094 	 7.94469 	 101.019 	 
H 	 51.6967 	 6.54764 	 100.189 	 
H 	 51.1614 	 7.91175 	 99.273 	 
S 	 42.9938 	 5.40703 	 98.459 	 
C 	 42.1582 	 5.73401 	 96.9399 	 
C 	 42.9574 	 6.39159 	 96.0857 	 
C 	 44.1564 	 6.85009 	 96.7009 	 
C 	 44.1225 	 6.62706 	 98.1064 	 
H 	 42.5852 	 6.54482 	 95.1089 	 
C 	 45.1849 	 7.68982 	 96.0298 	 
H 	 45.9198 	 6.9371 	 95.8516 	 
H 	 45.6636 	 8.34969 	 96.7574 	 
C 	 44.8064 	 8.60919 	 94.8732 	 
H 	 44.6784 	 7.98588 	 94.0323 	 
H 	 45.6893 	 9.22711 	 94.5666 	 
C 	 43.7633 	 9.72326 	 95.2202 	 
H 	 42.8328 	 9.2968 	 95.5531 	 
H 	 43.7475 	 10.4965 	 94.4382 	 
H 	 44.2081 	 10.325 	 96.0502 	 
H 	 46.6234 	 8.26947 	 102.161 	 
H 	 41.1789 	 5.36989 	 96.6556 	 
