34

S 	 -97.6928 	 60.0061 	 130.848 	 
C 	 -97.6337 	 59.6706 	 132.574 	 
C 	 -96.752 	 60.5093 	 133.192 	 
C 	 -96.121 	 61.4143 	 132.261 	 
C 	 -96.4431 	 61.1855 	 130.955 	 
H 	 -95.3454 	 62.1452 	 132.478 	 
C 	 -96.5112 	 60.6438 	 134.658 	 
H 	 -97.4595 	 60.5726 	 135.21 	 
H 	 -96.2313 	 61.6647 	 134.812 	 
C 	 -95.6485 	 59.5994 	 135.295 	 
H 	 -96.1696 	 58.6701 	 135.334 	 
H 	 -94.7554 	 59.3631 	 134.745 	 
C 	 -95.3 	 59.879 	 136.774 	 
H 	 -96.1883 	 59.8445 	 137.416 	 
H 	 -94.6701 	 59.1492 	 137.195 	 
H 	 -94.7053 	 60.8357 	 136.822 	 
S 	 -97.1908 	 62.5774 	 128.804 	 
C 	 -95.9809 	 63.1738 	 127.731 	 
C 	 -94.6787 	 62.8556 	 128.081 	 
C 	 -94.6945 	 61.9371 	 129.225 	 
C 	 -95.9578 	 61.84 	 129.763 	 
H 	 -93.908 	 63.3062 	 127.396 	 
C 	 -93.4291 	 61.2746 	 129.703 	 
H 	 -93.5795 	 60.2423 	 129.768 	 
H 	 -93.2634 	 61.6525 	 130.697 	 
C 	 -92.0664 	 61.733 	 129.063 	 
H 	 -92.0837 	 62.803 	 128.779 	 
H 	 -91.9578 	 61.3176 	 128.066 	 
C 	 -90.8955 	 61.2766 	 129.99 	 
H 	 -90.8862 	 61.7339 	 130.969 	 
H 	 -89.8984 	 61.5852 	 129.684 	 
H 	 -90.8616 	 60.1365 	 130.062 	 
H 	 -98.2493 	 58.8918 	 133.069 	 
H 	 -96.1784 	 63.7944 	 126.869 	 
