34

S 	 -20.5016 	 -6.2998 	 95.6685 	 
C 	 -22.0824 	 -6.34477 	 96.3914 	 
C 	 -22.9865 	 -5.55029 	 95.6892 	 
C 	 -22.4091 	 -4.96132 	 94.5113 	 
C 	 -21.1393 	 -5.3806 	 94.2591 	 
H 	 -22.894 	 -4.30551 	 93.7803 	 
C 	 -24.5164 	 -5.44118 	 96.0102 	 
H 	 -24.5985 	 -5.64768 	 97.0913 	 
H 	 -25.1401 	 -6.18803 	 95.5314 	 
C 	 -25.0528 	 -4.07207 	 95.6597 	 
H 	 -25.0141 	 -3.98506 	 94.543 	 
H 	 -26.0814 	 -3.89104 	 95.9185 	 
C 	 -24.3514 	 -2.91327 	 96.353 	 
H 	 -24.6179 	 -1.83149 	 95.9963 	 
H 	 -24.6215 	 -2.87538 	 97.4299 	 
H 	 -23.2483 	 -2.97916 	 96.3628 	 
S 	 -18.484 	 -4.7923 	 93.5669 	 
C 	 -18.0864 	 -4.16886 	 91.9692 	 
C 	 -19.2479 	 -4.21747 	 91.1897 	 
C 	 -20.4137 	 -4.62811 	 91.7942 	 
C 	 -20.25 	 -4.87769 	 93.1512 	 
H 	 -19.1925 	 -3.84776 	 90.1733 	 
C 	 -21.652 	 -5.01493 	 91.0267 	 
H 	 -22.4053 	 -5.55244 	 91.5893 	 
H 	 -21.366 	 -5.77988 	 90.2606 	 
C 	 -22.2781 	 -3.76224 	 90.3313 	 
H 	 -21.5796 	 -3.34085 	 89.537 	 
H 	 -22.3494 	 -2.93852 	 91.0632 	 
C 	 -23.6502 	 -4.12602 	 89.7374 	 
H 	 -23.6619 	 -4.92089 	 88.9914 	 
H 	 -24.0461 	 -3.20721 	 89.2818 	 
H 	 -24.2547 	 -4.46834 	 90.5866 	 
H 	 -22.3132 	 -6.78664 	 97.3429 	 
H 	 -17.1247 	 -3.68011 	 91.6672 	 
