34

S 	 -39.2559 	 33.8171 	 77.2054 	 
C 	 -39.0195 	 34.8336 	 75.821 	 
C 	 -40.2083 	 35.5302 	 75.5659 	 
C 	 -41.1411 	 35.3435 	 76.5889 	 
C 	 -40.7646 	 34.4994 	 77.6236 	 
H 	 -42.0799 	 35.898 	 76.6492 	 
C 	 -40.457 	 36.3962 	 74.4125 	 
H 	 -41.2099 	 35.7452 	 73.8174 	 
H 	 -39.5765 	 36.4634 	 73.8761 	 
C 	 -40.8964 	 37.8088 	 74.7523 	 
H 	 -41.3362 	 38.3458 	 73.8559 	 
H 	 -41.7197 	 37.546 	 75.381 	 
C 	 -39.9112 	 38.6763 	 75.5579 	 
H 	 -39.1068 	 39.0257 	 74.9354 	 
H 	 -40.4333 	 39.5772 	 75.9381 	 
H 	 -39.3706 	 38.2261 	 76.4368 	 
S 	 -42.9468 	 35.0603 	 79.0965 	 
C 	 -43.3254 	 34.2882 	 80.586 	 
C 	 -42.1891 	 33.5844 	 81.0556 	 
C 	 -41.1495 	 33.4919 	 80.0611 	 
C 	 -41.4663 	 34.2376 	 78.8911 	 
H 	 -42.3109 	 33.1325 	 82.0073 	 
C 	 -40.1121 	 32.4141 	 80.1612 	 
H 	 -39.859 	 32.2048 	 81.1418 	 
H 	 -39.1327 	 32.56 	 79.7501 	 
C 	 -40.6492 	 31.1557 	 79.4374 	 
H 	 -40.8723 	 31.4713 	 78.4067 	 
H 	 -41.6067 	 30.8302 	 79.756 	 
C 	 -39.8173 	 29.8785 	 79.3601 	 
H 	 -39.7252 	 29.3398 	 80.315 	 
H 	 -38.8428 	 29.9727 	 78.9022 	 
H 	 -40.2708 	 29.1246 	 78.6849 	 
H 	 -38.1831 	 34.7679 	 75.1831 	 
H 	 -44.2492 	 34.3405 	 81.153 	 
