34

S 	 15.8228 	 18.8233 	 39.0253 	 
C 	 15.3968 	 17.6727 	 37.7727 	 
C 	 14.0782 	 17.3344 	 37.8599 	 
C 	 13.3735 	 18.0642 	 38.8394 	 
C 	 14.1668 	 19.0031 	 39.4695 	 
H 	 12.2437 	 18.0856 	 39.0308 	 
C 	 13.4276 	 16.1594 	 37.1777 	 
H 	 13.9717 	 15.1272 	 37.4101 	 
H 	 13.6148 	 16.3377 	 36.0832 	 
C 	 11.8798 	 15.9343 	 37.4116 	 
H 	 11.7173 	 15.6754 	 38.4757 	 
H 	 11.2761 	 16.8307 	 37.1621 	 
C 	 11.3207 	 14.7295 	 36.7064 	 
H 	 10.3804 	 14.411 	 37.1488 	 
H 	 11.0364 	 14.9221 	 35.6137 	 
H 	 12.0545 	 13.9184 	 36.8321 	 
S 	 14.2391 	 21.7086 	 39.846 	 
C 	 13.7647 	 22.4514 	 41.2769 	 
C 	 13.1193 	 21.5603 	 42.0529 	 
C 	 13.1029 	 20.1972 	 41.5445 	 
C 	 13.7748 	 20.1423 	 40.3772 	 
H 	 12.7081 	 22.0111 	 42.934 	 
C 	 12.5883 	 19.042 	 42.3475 	 
H 	 13.1571 	 19.0741 	 43.2681 	 
H 	 12.8321 	 18.1716 	 41.7974 	 
C 	 11.1033 	 19.2378 	 42.7927 	 
H 	 10.939 	 20.1673 	 43.3146 	 
H 	 10.9046 	 18.4475 	 43.4966 	 
C 	 10.0349 	 19.2016 	 41.6355 	 
H 	 10.1321 	 18.3564 	 40.9404 	 
H 	 10.2691 	 20.0849 	 41.0392 	 
H 	 9.01407 	 19.2264 	 42.0025 	 
H 	 16.0948 	 17.0331 	 37.2316 	 
H 	 13.6498 	 23.5419 	 41.4232 	 
