34

S 	 -2.73259 	 35.1642 	 47.8928 	 
C 	 -1.28276 	 35.2434 	 48.8852 	 
C 	 -1.41963 	 34.3646 	 49.9283 	 
C 	 -2.53044 	 33.5198 	 49.827 	 
C 	 -3.3898 	 33.8276 	 48.7825 	 
H 	 -2.81828 	 32.8399 	 50.6204 	 
C 	 -0.350778 	 34.1207 	 51.0006 	 
H 	 0.0665242 	 33.1958 	 50.7569 	 
H 	 -0.82223 	 33.9449 	 51.9669 	 
C 	 0.675143 	 35.1648 	 51.3135 	 
H 	 1.26143 	 35.4232 	 50.439 	 
H 	 0.118922 	 36.0957 	 51.5439 	 
C 	 1.49383 	 34.7599 	 52.5579 	 
H 	 1.97836 	 35.6285 	 52.9059 	 
H 	 0.955691 	 34.4046 	 53.3918 	 
H 	 2.2609 	 34.0386 	 52.2903 	 
S 	 -5.9269 	 33.6755 	 49.8877 	 
C 	 -7.14141 	 33.0206 	 48.7745 	 
C 	 -6.62922 	 32.4942 	 47.6481 	 
C 	 -5.26915 	 32.6887 	 47.515 	 
C 	 -4.70337 	 33.2918 	 48.6057 	 
H 	 -7.2763 	 32.0669 	 46.9278 	 
C 	 -4.45517 	 32.1549 	 46.3063 	 
H 	 -3.97327 	 31.2466 	 46.6244 	 
H 	 -3.60054 	 32.8245 	 46.1498 	 
C 	 -5.20528 	 32.0613 	 44.9299 	 
H 	 -6.14316 	 31.5644 	 45.0891 	 
H 	 -4.69591 	 31.3788 	 44.2915 	 
C 	 -5.52434 	 33.3674 	 44.2267 	 
H 	 -6.08939 	 33.3626 	 43.2877 	 
H 	 -4.59703 	 33.8806 	 44.0179 	 
H 	 -6.09475 	 33.8656 	 44.9661 	 
H 	 -0.421303 	 35.7685 	 48.7356 	 
H 	 -8.21518 	 33.0896 	 48.9712 	 
