34

S 	 16.0912 	 24.959 	 63.2353 	 
C 	 16.6823 	 23.3774 	 62.7009 	 
C 	 15.6045 	 22.6626 	 62.0741 	 
C 	 14.4182 	 23.4212 	 62.0114 	 
C 	 14.433 	 24.6174 	 62.6051 	 
H 	 13.4815 	 23.0298 	 61.6601 	 
C 	 15.6201 	 21.1808 	 61.6428 	 
H 	 16.5993 	 20.9316 	 61.2331 	 
H 	 14.9434 	 21.075 	 60.7997 	 
C 	 15.1224 	 20.0816 	 62.6001 	 
H 	 15.4122 	 19.0734 	 62.3846 	 
H 	 15.5078 	 20.3915 	 63.5878 	 
C 	 13.6564 	 20.0707 	 62.7497 	 
H 	 13.1222 	 21.028 	 62.961 	 
H 	 13.2421 	 19.5924 	 61.8892 	 
H 	 13.372 	 19.5027 	 63.602 	 
S 	 12.9363 	 26.2565 	 64.264 	 
C 	 11.4842 	 27.1285 	 63.6123 	 
C 	 11.3319 	 26.7815 	 62.2865 	 
C 	 12.2724 	 25.8567 	 61.7809 	 
C 	 13.3012 	 25.5317 	 62.6595 	 
H 	 10.6543 	 27.291 	 61.5996 	 
C 	 12.1637 	 25.3783 	 60.3105 	 
H 	 12.8996 	 24.5799 	 60.1336 	 
H 	 12.2958 	 26.2218 	 59.6386 	 
C 	 10.8475 	 24.6074 	 60.0472 	 
H 	 10.7967 	 24.1981 	 59.0283 	 
H 	 10.0527 	 25.3757 	 60.1541 	 
C 	 10.5729 	 23.4389 	 61.0093 	 
H 	 10.3361 	 23.8661 	 62.0057 	 
H 	 11.3524 	 22.7817 	 61.1644 	 
H 	 9.70981 	 22.8326 	 60.7346 	 
H 	 17.6129 	 22.9912 	 62.9489 	 
H 	 10.901 	 27.8232 	 64.2332 	 
