34

S 	 8.07238 	 -8.58308 	 63.3005 	 
C 	 6.65276 	 -8.21828 	 64.4696 	 
C 	 6.61303 	 -9.02792 	 65.5778 	 
C 	 7.68464 	 -10.0223 	 65.5883 	 
C 	 8.50098 	 -9.84794 	 64.4456 	 
H 	 7.84042 	 -10.7163 	 66.3395 	 
C 	 5.50545 	 -8.97965 	 66.6157 	 
H 	 4.95225 	 -9.85933 	 66.2853 	 
H 	 4.91955 	 -8.13792 	 66.2895 	 
C 	 5.86203 	 -9.02341 	 68.0675 	 
H 	 4.94164 	 -9.2074 	 68.5199 	 
H 	 6.44819 	 -9.95337 	 68.3371 	 
C 	 6.48193 	 -7.78222 	 68.5501 	 
H 	 6.69995 	 -7.78043 	 69.6404 	 
H 	 7.40061 	 -7.43456 	 68.0124 	 
H 	 5.81049 	 -6.96226 	 68.3813 	 
S 	 11.2875 	 -9.86106 	 64.4518 	 
C 	 12.1895 	 -11.2741 	 64.0077 	 
C 	 11.324 	 -12.3516 	 63.9394 	 
C 	 9.9172 	 -12.0456 	 64.0499 	 
C 	 9.71797 	 -10.6998 	 64.3343 	 
H 	 11.726 	 -13.2756 	 63.7285 	 
C 	 8.84508 	 -13.0443 	 63.9118 	 
H 	 7.91073 	 -12.5587 	 64.3952 	 
H 	 9.07964 	 -13.8872 	 64.6116 	 
C 	 8.71295 	 -13.5016 	 62.4607 	 
H 	 7.87505 	 -14.2006 	 62.3058 	 
H 	 9.66348 	 -13.9872 	 62.1951 	 
C 	 8.40243 	 -12.336 	 61.4476 	 
H 	 7.51522 	 -11.7368 	 61.7586 	 
H 	 8.34479 	 -12.7635 	 60.4043 	 
H 	 9.21086 	 -11.603 	 61.3507 	 
H 	 5.82471 	 -7.59258 	 64.2237 	 
H 	 13.2903 	 -11.2652 	 63.9088 	 
