34

S 	 48.1733 	 4.29944 	 87.5263 	 
C 	 48.387 	 3.26376 	 86.2154 	 
C 	 48.9963 	 2.02349 	 86.5731 	 
C 	 49.609 	 2.16024 	 87.8402 	 
C 	 49.3688 	 3.35813 	 88.5036 	 
H 	 50.1896 	 1.39789 	 88.4033 	 
C 	 48.9563 	 0.761843 	 85.8391 	 
H 	 47.8719 	 0.78465 	 85.6748 	 
H 	 49.2179 	 -0.137455 	 86.5027 	 
C 	 49.5687 	 0.911993 	 84.4256 	 
H 	 49.2222 	 1.82181 	 83.9193 	 
H 	 50.6862 	 1.05916 	 84.393 	 
C 	 49.1823 	 -0.217098 	 83.3826 	 
H 	 49.8463 	 -1.09327 	 83.5081 	 
H 	 48.0932 	 -0.54924 	 83.5042 	 
H 	 49.2505 	 0.142784 	 82.2654 	 
S 	 49.0797 	 4.80557 	 90.8454 	 
C 	 50.5677 	 5.35961 	 91.6276 	 
C 	 51.6758 	 4.74227 	 91.1085 	 
C 	 51.3621 	 3.94177 	 89.965 	 
C 	 50.0189 	 3.90527 	 89.6667 	 
H 	 52.6578 	 5.00292 	 91.5804 	 
C 	 52.493 	 3.29043 	 89.2514 	 
H 	 52.0696 	 2.35435 	 88.7332 	 
H 	 53.2273 	 2.93164 	 90.0007 	 
C 	 53.264 	 4.03072 	 88.1223 	 
H 	 52.5092 	 4.39661 	 87.4939 	 
H 	 53.8085 	 3.32086 	 87.4951 	 
C 	 54.3303 	 5.14243 	 88.402 	 
H 	 55.3181 	 4.6774 	 88.417 	 
H 	 54.321 	 5.59867 	 89.3472 	 
H 	 54.3106 	 6.02097 	 87.6724 	 
H 	 47.7703 	 3.39747 	 85.3144 	 
H 	 50.5866 	 6.04386 	 92.4699 	 
