34

S 	 -15.6045 	 39.2367 	 32.9239 	 
C 	 -13.9371 	 38.5868 	 33.1612 	 
C 	 -13.1716 	 38.9214 	 32.0804 	 
C 	 -13.7792 	 39.7231 	 31.0757 	 
C 	 -15.1258 	 39.8884 	 31.3744 	 
H 	 -13.2927 	 40.0941 	 30.1605 	 
C 	 -11.6957 	 38.5108 	 32.0234 	 
H 	 -11.7886 	 37.3941 	 31.8294 	 
H 	 -11.2875 	 38.7577 	 33.0611 	 
C 	 -10.8065 	 39.1543 	 30.873 	 
H 	 -10.892 	 40.2748 	 30.9132 	 
H 	 -9.83182 	 38.8651 	 31.248 	 
C 	 -10.9441 	 38.5597 	 29.4374 	 
H 	 -11.799 	 39.0083 	 28.9715 	 
H 	 -10.1147 	 38.8423 	 28.7878 	 
H 	 -11.0509 	 37.4698 	 29.4618 	 
S 	 -17.7737 	 39.7646 	 30.3998 	 
C 	 -18.2411 	 40.9284 	 29.1744 	 
C 	 -17.3807 	 41.9741 	 29.0911 	 
C 	 -16.1644 	 41.7495 	 29.7935 	 
C 	 -16.1761 	 40.5602 	 30.5499 	 
H 	 -17.6962 	 42.7195 	 28.3336 	 
C 	 -15.0556 	 42.7552 	 29.603 	 
H 	 -14.3931 	 42.3147 	 28.8263 	 
H 	 -14.4586 	 42.7768 	 30.4657 	 
C 	 -15.3739 	 44.2083 	 29.1854 	 
H 	 -15.9606 	 44.682 	 30.0079 	 
H 	 -16.0871 	 44.1263 	 28.3061 	 
C 	 -14.1226 	 44.9932 	 28.7737 	 
H 	 -14.4355 	 46.0691 	 28.6298 	 
H 	 -13.5412 	 44.588 	 27.9469 	 
H 	 -13.4758 	 45.0197 	 29.7045 	 
H 	 -13.6335 	 37.9295 	 33.8812 	 
H 	 -19.1425 	 40.7723 	 28.6616 	 
