34

S 	 -54.7421 	 55.2406 	 137.199 	 
C 	 -53.41 	 55.4405 	 136.084 	 
C 	 -53.7166 	 56.391 	 135.097 	 
C 	 -55.1124 	 56.7559 	 135.168 	 
C 	 -55.8165 	 56.1991 	 136.198 	 
H 	 -55.6902 	 57.3022 	 134.45 	 
C 	 -52.7926 	 56.8535 	 133.956 	 
H 	 -52.9792 	 56.1908 	 133.079 	 
H 	 -51.7897 	 56.6691 	 134.256 	 
C 	 -53.1399 	 58.2696 	 133.476 	 
H 	 -54.0932 	 58.246 	 132.997 	 
H 	 -53.2357 	 58.9685 	 134.257 	 
C 	 -52.0485 	 58.6544 	 132.43 	 
H 	 -51.6403 	 57.7968 	 131.946 	 
H 	 -52.4186 	 59.331 	 131.696 	 
H 	 -51.193 	 59.2068 	 132.839 	 
S 	 -58.1109 	 55.3402 	 134.989 	 
C 	 -59.6622 	 55.8304 	 135.645 	 
C 	 -59.391 	 56.7024 	 136.717 	 
C 	 -58.0419 	 57.0006 	 137.029 	 
C 	 -57.2255 	 56.1693 	 136.303 	 
H 	 -60.2619 	 57.1608 	 137.187 	 
C 	 -57.6756 	 58.0558 	 138.086 	 
H 	 -58.3737 	 58.888 	 137.925 	 
H 	 -56.678 	 58.5754 	 137.843 	 
C 	 -57.7869 	 57.4839 	 139.469 	 
H 	 -57.0931 	 58.0188 	 140.12 	 
H 	 -57.5546 	 56.4272 	 139.512 	 
C 	 -59.2168 	 57.6225 	 140.044 	 
H 	 -59.9913 	 57.1931 	 139.362 	 
H 	 -59.6774 	 58.6496 	 140.022 	 
H 	 -59.353 	 57.2125 	 141.015 	 
H 	 -52.4944 	 55.0306 	 136.153 	 
H 	 -60.6233 	 55.6277 	 135.132 	 
