34

S 	 5.26243 	 19.5518 	 38.8211 	 
C 	 6.2599 	 18.7446 	 37.6952 	 
C 	 7.14832 	 19.633 	 37.0799 	 
C 	 6.96364 	 20.9864 	 37.5667 	 
C 	 5.89617 	 21.1109 	 38.4081 	 
H 	 7.57529 	 21.7534 	 37.2552 	 
C 	 8.25581 	 19.1735 	 36.0504 	 
H 	 8.66239 	 20.0677 	 35.5995 	 
H 	 7.80552 	 18.7326 	 35.124 	 
C 	 9.41886 	 18.4216 	 36.668 	 
H 	 10.0917 	 19.1599 	 37.0694 	 
H 	 9.07489 	 17.7986 	 37.5477 	 
C 	 10.1748 	 17.5451 	 35.6542 	 
H 	 11.0855 	 17.3252 	 36.1761 	 
H 	 9.56923 	 16.6656 	 35.4598 	 
H 	 10.3017 	 17.9437 	 34.6509 	 
S 	 5.28748 	 22.3788 	 40.8063 	 
C 	 4.99008 	 24.1249 	 40.8107 	 
C 	 5.0918 	 24.6726 	 39.5579 	 
C 	 5.33003 	 23.6498 	 38.5462 	 
C 	 5.5144 	 22.3528 	 39.0476 	 
H 	 4.89709 	 25.7312 	 39.4608 	 
C 	 5.21879 	 23.9471 	 37.0863 	 
H 	 4.2192 	 24.3756 	 36.907 	 
H 	 5.22384 	 22.977 	 36.5782 	 
C 	 6.11784 	 24.9072 	 36.4514 	 
H 	 7.1024 	 24.5111 	 36.4223 	 
H 	 6.21459 	 25.8982 	 36.9203 	 
C 	 5.65355 	 25.1781 	 34.9931 	 
H 	 4.77898 	 25.8627 	 34.9884 	 
H 	 5.44124 	 24.1991 	 34.5079 	 
H 	 6.42067 	 25.7398 	 34.4192 	 
H 	 6.37635 	 17.7062 	 37.4072 	 
H 	 4.68129 	 24.745 	 41.6236 	 
