34

S 	 -16.7951 	 31.0167 	 37.6083 	 
C 	 -17.9603 	 32.1131 	 38.2003 	 
C 	 -17.6241 	 33.4164 	 37.8766 	 
C 	 -16.6127 	 33.4001 	 36.8273 	 
C 	 -16.1041 	 32.1689 	 36.5218 	 
H 	 -16.2874 	 34.3353 	 36.3708 	 
C 	 -18.4628 	 34.6438 	 38.3247 	 
H 	 -17.7374 	 35.4922 	 38.3056 	 
H 	 -18.8531 	 34.4807 	 39.3396 	 
C 	 -19.7106 	 34.9265 	 37.3889 	 
H 	 -20.5474 	 34.2458 	 37.3894 	 
H 	 -20.2101 	 35.7078 	 37.8587 	 
C 	 -19.3277 	 35.1954 	 35.9683 	 
H 	 -18.8564 	 34.2746 	 35.591 	 
H 	 -20.1854 	 35.5731 	 35.4469 	 
H 	 -18.4835 	 35.9269 	 35.8858 	 
S 	 -13.9166 	 30.6281 	 35.7782 	 
C 	 -13.1571 	 30.7335 	 34.2113 	 
C 	 -13.8589 	 31.6244 	 33.4213 	 
C 	 -14.9525 	 32.2736 	 34.1198 	 
C 	 -15.166 	 31.8058 	 35.4101 	 
H 	 -13.6124 	 31.7673 	 32.381 	 
C 	 -15.8204 	 33.3954 	 33.4193 	 
H 	 -16.6 	 33.5854 	 34.0515 	 
H 	 -16.3384 	 32.936 	 32.5356 	 
C 	 -15.1066 	 34.69 	 33.1312 	 
H 	 -14.4465 	 34.4554 	 32.3691 	 
H 	 -14.5332 	 35.1055 	 33.9214 	 
C 	 -15.9165 	 35.8982 	 32.6264 	 
H 	 -16.4209 	 36.3096 	 33.5186 	 
H 	 -16.5856 	 35.4678 	 31.834 	 
H 	 -15.1864 	 36.607 	 32.1364 	 
H 	 -18.9001 	 31.7964 	 38.7082 	 
H 	 -12.3337 	 30.1156 	 33.8629 	 
