34

S 	 5.60118 	 -29.2532 	 77.1377 	 
C 	 3.98891 	 -29.833 	 77.6144 	 
C 	 3.89765 	 -29.7794 	 78.9762 	 
C 	 4.94367 	 -29.0534 	 79.6074 	 
C 	 5.98891 	 -28.6718 	 78.7426 	 
H 	 4.9913 	 -28.856 	 80.6949 	 
C 	 2.83943 	 -30.4275 	 79.8385 	 
H 	 3.36286 	 -31.2719 	 80.4026 	 
H 	 2.03089 	 -30.8955 	 79.2535 	 
C 	 2.20751 	 -29.5118 	 80.9157 	 
H 	 1.4662 	 -30.0997 	 81.494 	 
H 	 2.85861 	 -29.2059 	 81.7903 	 
C 	 1.6353 	 -28.2368 	 80.293 	 
H 	 1.02543 	 -27.7557 	 81.0989 	 
H 	 2.37451 	 -27.5163 	 79.9913 	 
H 	 0.979116 	 -28.4811 	 79.4478 	 
S 	 7.06145 	 -26.718 	 80.3358 	 
C 	 8.58237 	 -26.0791 	 79.8943 	 
C 	 9.21398 	 -26.7294 	 78.8685 	 
C 	 8.38838 	 -27.7538 	 78.4034 	 
C 	 7.15246 	 -27.8235 	 79.0537 	 
H 	 10.106 	 -26.3368 	 78.4357 	 
C 	 8.89523 	 -28.6106 	 77.2412 	 
H 	 9.77701 	 -28.1489 	 76.8949 	 
H 	 8.25236 	 -28.5434 	 76.3997 	 
C 	 9.14856 	 -30.114 	 77.6089 	 
H 	 8.22655 	 -30.5086 	 78.1109 	 
H 	 10.0147 	 -30.1303 	 78.2571 	 
C 	 9.56524 	 -30.8531 	 76.342 	 
H 	 9.76322 	 -31.9894 	 76.5283 	 
H 	 10.4689 	 -30.3324 	 76.0695 	 
H 	 8.71417 	 -30.8958 	 75.6138 	 
H 	 3.28105 	 -30.2556 	 76.9004 	 
H 	 8.95707 	 -25.1709 	 80.3398 	 
