34

S 	 -42.3678 	 23.4417 	 77.2696 	 
C 	 -43.2981 	 22.4351 	 78.3534 	 
C 	 -42.513 	 21.8098 	 79.3024 	 
C 	 -41.0908 	 22.1021 	 79.1572 	 
C 	 -40.8618 	 22.9535 	 78.0988 	 
H 	 -40.3104 	 21.7145 	 79.7707 	 
C 	 -43.0843 	 21.058 	 80.5009 	 
H 	 -42.3029 	 21.0839 	 81.2037 	 
H 	 -43.1247 	 20.0603 	 80.2497 	 
C 	 -44.4563 	 21.3973 	 80.8901 	 
H 	 -44.5844 	 20.9886 	 81.8175 	 
H 	 -44.6407 	 22.4791 	 81.0322 	 
C 	 -45.6364 	 20.8712 	 80.0731 	 
H 	 -45.7356 	 20.9363 	 78.9837 	 
H 	 -45.8978 	 19.8294 	 80.2817 	 
H 	 -46.4246 	 21.4876 	 80.4553 	 
S 	 -39.5011 	 23.8286 	 75.9346 	 
C 	 -38.0055 	 24.6012 	 76.1021 	 
C 	 -37.7137 	 24.7239 	 77.4313 	 
C 	 -38.5849 	 24.0568 	 78.3245 	 
C 	 -39.6172 	 23.5041 	 77.6322 	 
H 	 -36.8252 	 25.2682 	 77.6798 	 
C 	 -38.5455 	 24.3084 	 79.8617 	 
H 	 -37.5002 	 24.6382 	 79.9851 	 
H 	 -38.6549 	 23.28 	 80.3311 	 
C 	 -39.5175 	 25.3483 	 80.3524 	 
H 	 -40.5553 	 25.0321 	 80.2171 	 
H 	 -39.4547 	 26.2553 	 79.7368 	 
C 	 -39.1466 	 25.7026 	 81.8685 	 
H 	 -38.2009 	 26.209 	 81.8887 	 
H 	 -39.069 	 24.8417 	 82.5435 	 
H 	 -40.012 	 26.3759 	 82.1061 	 
H 	 -44.3038 	 22.1663 	 78.2928 	 
H 	 -37.3854 	 25.1418 	 75.4057 	 
