34

S 	 -79.1563 	 39.0826 	 134.554 	 
C 	 -78.0022 	 38.2271 	 135.474 	 
C 	 -78.0026 	 36.8321 	 135.299 	 
C 	 -79.0019 	 36.4798 	 134.348 	 
C 	 -79.6706 	 37.6003 	 133.818 	 
H 	 -79.1948 	 35.4144 	 134.2 	 
C 	 -77.0502 	 35.8068 	 135.931 	 
H 	 -77.3888 	 34.7271 	 135.946 	 
H 	 -76.7999 	 36.0895 	 136.968 	 
C 	 -75.7215 	 35.7893 	 135.091 	 
H 	 -75.4919 	 36.8099 	 135.051 	 
H 	 -74.9119 	 35.243 	 135.623 	 
C 	 -75.8324 	 35.2869 	 133.603 	 
H 	 -76.8354 	 35.5194 	 133.162 	 
H 	 -75.1556 	 35.7719 	 132.884 	 
H 	 -75.6426 	 34.2262 	 133.429 	 
S 	 -82.2168 	 38.5202 	 133.589 	 
C 	 -83.1325 	 38.0115 	 132.12 	 
C 	 -82.4401 	 37.3055 	 131.184 	 
C 	 -81.1125 	 37.0702 	 131.642 	 
C 	 -80.8321 	 37.6188 	 132.942 	 
H 	 -82.8653 	 36.9607 	 130.258 	 
C 	 -80.1856 	 36.1974 	 130.851 	 
H 	 -80.2523 	 35.2016 	 131.133 	 
H 	 -79.2186 	 36.5273 	 131.238 	 
C 	 -80.0646 	 36.3183 	 129.386 	 
H 	 -79.9077 	 37.3761 	 129.279 	 
H 	 -81.0113 	 36.1255 	 128.905 	 
C 	 -79.0029 	 35.4634 	 128.659 	 
H 	 -78.8611 	 35.7332 	 127.578 	 
H 	 -79.1284 	 34.384 	 128.653 	 
H 	 -78.0409 	 35.8145 	 129.073 	 
H 	 -77.1912 	 38.7576 	 136.097 	 
H 	 -84.1519 	 38.2071 	 131.948 	 
