34

S 	 4.48691 	 -21.9088 	 59.9409 	 
C 	 5.7424 	 -20.8452 	 59.269 	 
C 	 5.24688 	 -19.5436 	 59.1084 	 
C 	 3.85233 	 -19.42 	 59.5502 	 
C 	 3.36747 	 -20.6269 	 60.0408 	 
H 	 3.27063 	 -18.4929 	 59.5884 	 
C 	 6.09544 	 -18.3729 	 58.6718 	 
H 	 6.0351 	 -18.3502 	 57.551 	 
H 	 7.12791 	 -18.5348 	 58.9366 	 
C 	 5.66689 	 -16.9651 	 59.2045 	 
H 	 6.35955 	 -16.2143 	 58.69 	 
H 	 4.67793 	 -16.7256 	 58.7694 	 
C 	 5.79139 	 -16.7257 	 60.6733 	 
H 	 6.80368 	 -16.9306 	 61.0761 	 
H 	 5.65384 	 -15.7085 	 61.0536 	 
H 	 5.04844 	 -17.3525 	 61.1911 	 
S 	 1.30372 	 -22.3208 	 60.4068 	 
C 	 -0.0741615 	 -21.8959 	 61.4099 	 
C 	 0.0283961 	 -20.5695 	 61.8781 	 
C 	 1.19231 	 -20.0115 	 61.4135 	 
C 	 2.05403 	 -20.83 	 60.5812 	 
H 	 -0.82176 	 -20.1452 	 62.4263 	 
C 	 1.59568 	 -18.7033 	 62.0527 	 
H 	 0.823541 	 -17.9894 	 61.7388 	 
H 	 2.41337 	 -18.2725 	 61.4828 	 
C 	 2.0039 	 -18.6914 	 63.5568 	 
H 	 1.18952 	 -19.2923 	 63.9358 	 
H 	 1.94294 	 -17.6993 	 63.9252 	 
C 	 3.36504 	 -19.195 	 63.8588 	 
H 	 4.09139 	 -18.775 	 63.2197 	 
H 	 3.37864 	 -20.213 	 63.8345 	 
H 	 3.63237 	 -18.9239 	 64.9285 	 
H 	 6.72985 	 -21.2491 	 59.1948 	 
H 	 -1.01439 	 -22.354 	 61.506 	 
