34

S 	 -44.5035 	 18.4324 	 75.6754 	 
C 	 -42.8817 	 18.7048 	 76.2168 	 
C 	 -41.8982 	 18.2475 	 75.2897 	 
C 	 -42.474 	 17.6836 	 74.1151 	 
C 	 -43.8953 	 17.6803 	 74.1197 	 
H 	 -41.9099 	 17.2767 	 73.2236 	 
C 	 -40.4127 	 18.3593 	 75.5044 	 
H 	 -40.1558 	 19.4098 	 75.7226 	 
H 	 -39.905 	 18.3243 	 74.6072 	 
C 	 -39.8679 	 17.4237 	 76.577 	 
H 	 -40.3598 	 17.5735 	 77.5622 	 
H 	 -40.2062 	 16.5241 	 76.1172 	 
C 	 -38.3565 	 17.3903 	 76.6136 	 
H 	 -38.0995 	 16.5593 	 77.2494 	 
H 	 -37.979 	 17.0942 	 75.6506 	 
H 	 -37.8673 	 18.2629 	 77.0447 	 
S 	 -46.2812 	 16.2503 	 73.9506 	 
C 	 -46.9175 	 15.8196 	 72.3269 	 
C 	 -46.0878 	 16.2685 	 71.3407 	 
C 	 -44.9203 	 16.9014 	 71.7913 	 
C 	 -44.8467 	 17.0406 	 73.1633 	 
H 	 -46.4311 	 16.2155 	 70.3624 	 
C 	 -43.9351 	 17.4232 	 70.8078 	 
H 	 -43.5746 	 18.4035 	 71.1826 	 
H 	 -44.5105 	 17.6479 	 69.8844 	 
C 	 -42.7599 	 16.4469 	 70.4098 	 
H 	 -43.1868 	 15.4946 	 70.1127 	 
H 	 -42.1038 	 16.3017 	 71.3088 	 
C 	 -41.9027 	 17.0099 	 69.3194 	 
H 	 -42.4761 	 17.5517 	 68.6163 	 
H 	 -41.4474 	 16.1674 	 68.8047 	 
H 	 -41.1606 	 17.7451 	 69.6824 	 
H 	 -42.4661 	 19.1213 	 77.1643 	 
H 	 -47.8805 	 15.3816 	 72.158 	 
