34

S 	 -30.5679 	 27.6383 	 48.6777 	 
C 	 -29.8267 	 28.2393 	 50.1886 	 
C 	 -30.3449 	 29.4801 	 50.5201 	 
C 	 -31.2625 	 29.923 	 49.5748 	 
C 	 -31.4192 	 29.0718 	 48.4846 	 
H 	 -31.783 	 30.8819 	 49.5771 	 
C 	 -29.7657 	 30.3774 	 51.6322 	 
H 	 -29.5395 	 29.7804 	 52.541 	 
H 	 -30.5589 	 30.9966 	 51.8942 	 
C 	 -28.6823 	 31.3296 	 51.1517 	 
H 	 -28.9446 	 31.6647 	 50.1564 	 
H 	 -28.584 	 32.2322 	 51.7315 	 
C 	 -27.2647 	 30.6651 	 51.2411 	 
H 	 -27.2335 	 29.7472 	 50.6894 	 
H 	 -26.374 	 31.1848 	 50.8232 	 
H 	 -27.0642 	 30.4542 	 52.3057 	 
S 	 -32.2754 	 30.4429 	 46.287 	 
C 	 -33.9192 	 30.3424 	 45.876 	 
C 	 -34.4987 	 29.1968 	 46.4098 	 
C 	 -33.6641 	 28.5698 	 47.3944 	 
C 	 -32.4365 	 29.1463 	 47.4698 	 
H 	 -35.5555 	 28.945 	 46.1907 	 
C 	 -34.1901 	 27.6048 	 48.4211 	 
H 	 -34.2547 	 28.2098 	 49.3266 	 
H 	 -33.4428 	 26.8062 	 48.6155 	 
C 	 -35.5586 	 27.066 	 48.1845 	 
H 	 -35.5358 	 26.759 	 47.132 	 
H 	 -36.3095 	 27.8848 	 48.2244 	 
C 	 -36.0167 	 25.9596 	 49.092 	 
H 	 -36.9682 	 25.5283 	 48.7168 	 
H 	 -36.3275 	 26.4478 	 50.0036 	 
H 	 -35.3706 	 25.143 	 49.2258 	 
H 	 -28.9819 	 27.7352 	 50.6193 	 
H 	 -34.2809 	 30.8939 	 45.0279 	 
