34

S 	 36.5287 	 3.16921 	 72.8335 	 
C 	 35.8268 	 4.33005 	 71.7447 	 
C 	 34.5185 	 3.98625 	 71.4593 	 
C 	 34.1903 	 2.65765 	 71.8376 	 
C 	 35.1579 	 2.11592 	 72.6607 	 
H 	 33.2709 	 2.09853 	 71.6041 	 
C 	 33.6166 	 4.73922 	 70.5781 	 
H 	 32.7019 	 4.19601 	 70.6066 	 
H 	 34.0345 	 4.79856 	 69.6062 	 
C 	 33.3506 	 6.19735 	 71.1321 	 
H 	 34.2456 	 6.78825 	 70.9722 	 
H 	 32.5533 	 6.58101 	 70.4711 	 
C 	 33.0065 	 6.22295 	 72.6681 	 
H 	 33.8583 	 6.03398 	 73.2915 	 
H 	 32.5378 	 7.17381 	 72.9464 	 
H 	 32.2293 	 5.35782 	 72.8687 	 
S 	 34.6704 	 -0.607485 	 72.412 	 
C 	 34.9288 	 -1.60468 	 73.7903 	 
C 	 35.2037 	 -0.898318 	 74.8991 	 
C 	 35.3391 	 0.4817 	 74.6357 	 
C 	 34.9787 	 0.845612 	 73.3648 	 
H 	 35.4269 	 -1.44567 	 75.7814 	 
C 	 35.8622 	 1.40261 	 75.6981 	 
H 	 35.6035 	 2.43591 	 75.4918 	 
H 	 36.9087 	 1.4659 	 75.6681 	 
C 	 35.5863 	 1.13794 	 77.1333 	 
H 	 36.0898 	 1.94506 	 77.7401 	 
H 	 35.9712 	 0.142456 	 77.417 	 
C 	 34.1182 	 1.31118 	 77.5325 	 
H 	 34.0272 	 0.974597 	 78.5703 	 
H 	 33.5354 	 0.62329 	 76.864 	 
H 	 33.7523 	 2.33647 	 77.4134 	 
H 	 36.3495 	 5.27781 	 71.3594 	 
H 	 34.8351 	 -2.63894 	 73.917 	 
