34

S 	 -64.8874 	 34.0026 	 118.918 	 
C 	 -65.297 	 33.0021 	 120.296 	 
C 	 -66.4148 	 33.4862 	 120.916 	 
C 	 -66.8207 	 34.7443 	 120.444 	 
C 	 -66.1416 	 35.1634 	 119.308 	 
H 	 -67.4932 	 35.3809 	 120.851 	 
C 	 -67.0752 	 32.8098 	 122.143 	 
H 	 -67.3564 	 33.5449 	 122.958 	 
H 	 -66.3442 	 32.078 	 122.628 	 
C 	 -68.4167 	 32.0835 	 121.817 	 
H 	 -68.5188 	 31.4548 	 122.709 	 
H 	 -69.2153 	 32.8435 	 121.661 	 
C 	 -68.2682 	 31.1082 	 120.562 	 
H 	 -67.8529 	 31.6785 	 119.686 	 
H 	 -67.4921 	 30.4283 	 120.831 	 
H 	 -69.2747 	 30.7182 	 120.243 	 
S 	 -64.5517 	 37.326 	 118.698 	 
C 	 -65.2719 	 38.8744 	 118.251 	 
C 	 -66.5946 	 38.5902 	 117.841 	 
C 	 -67.0971 	 37.306 	 118.209 	 
C 	 -66.1276 	 36.482 	 118.723 	 
H 	 -67.1553 	 39.439 	 117.436 	 
C 	 -68.5758 	 36.8744 	 117.925 	 
H 	 -69.257 	 37.5294 	 118.287 	 
H 	 -68.766 	 36.0114 	 118.579 	 
C 	 -68.8161 	 36.52 	 116.466 	 
H 	 -68.6384 	 37.3782 	 115.777 	 
H 	 -69.8972 	 36.2602 	 116.291 	 
C 	 -67.9376 	 35.3813 	 115.912 	 
H 	 -67.883 	 34.5134 	 116.62 	 
H 	 -66.9557 	 35.8554 	 115.744 	 
H 	 -68.2841 	 35.0703 	 114.968 	 
H 	 -64.6491 	 32.129 	 120.34 	 
H 	 -64.7477 	 39.7612 	 118.131 	 
