34

S 	 -29.2083 	 60.2974 	 106.458 	 
C 	 -28.6468 	 60.9019 	 107.958 	 
C 	 -29.5274 	 61.7652 	 108.596 	 
C 	 -30.7503 	 61.9612 	 107.819 	 
C 	 -30.7812 	 61.1881 	 106.681 	 
H 	 -31.5669 	 62.572 	 108.091 	 
C 	 -29.1722 	 62.4349 	 109.918 	 
H 	 -28.4676 	 61.8255 	 110.393 	 
H 	 -30.1376 	 62.4073 	 110.405 	 
C 	 -28.5841 	 63.8621 	 109.977 	 
H 	 -29.2761 	 64.5639 	 109.443 	 
H 	 -28.6686 	 64.222 	 111.039 	 
C 	 -27.1916 	 64.0921 	 109.553 	 
H 	 -26.4375 	 63.8247 	 110.315 	 
H 	 -26.8728 	 63.566 	 108.615 	 
H 	 -26.9938 	 65.255 	 109.413 	 
S 	 -32.8053 	 59.4197 	 106.202 	 
C 	 -34.0603 	 59.8568 	 105.109 	 
C 	 -33.8531 	 61.0722 	 104.484 	 
C 	 -32.6711 	 61.7143 	 105.007 	 
C 	 -31.9538 	 60.9237 	 105.874 	 
H 	 -34.625 	 61.5054 	 103.826 	 
C 	 -32.2194 	 63.0162 	 104.509 	 
H 	 -31.2374 	 63.1589 	 104.912 	 
H 	 -32.8225 	 63.8791 	 104.881 	 
C 	 -32.2677 	 63.3549 	 103.027 	 
H 	 -33.2085 	 63.3185 	 102.594 	 
H 	 -31.7188 	 62.5887 	 102.513 	 
C 	 -31.8594 	 64.8264 	 102.695 	 
H 	 -30.7661 	 64.9984 	 102.775 	 
H 	 -32.2974 	 65.4958 	 103.408 	 
H 	 -32.1001 	 65.0233 	 101.63 	 
H 	 -27.6528 	 60.7578 	 108.289 	 
H 	 -34.9668 	 59.3256 	 104.904 	 
