34

S 	 -38.4524 	 53.6245 	 109.095 	 
C 	 -37.1824 	 54.8807 	 108.924 	 
C 	 -37.6143 	 55.9953 	 109.617 	 
C 	 -38.999 	 55.9735 	 109.944 	 
C 	 -39.5958 	 54.7674 	 109.682 	 
H 	 -39.5049 	 56.8094 	 110.316 	 
C 	 -36.8538 	 57.1935 	 110.039 	 
H 	 -37.564 	 58.0184 	 110.089 	 
H 	 -36.1533 	 57.3371 	 109.214 	 
C 	 -36.045 	 57.0588 	 111.31 	 
H 	 -35.206 	 56.442 	 111.148 	 
H 	 -35.6214 	 57.9998 	 111.606 	 
C 	 -36.8551 	 56.6473 	 112.572 	 
H 	 -37.6653 	 57.2889 	 112.763 	 
H 	 -37.3718 	 55.623 	 112.353 	 
H 	 -36.1964 	 56.6637 	 113.426 	 
S 	 -40.9583 	 52.9692 	 111.181 	 
C 	 -42.7036 	 52.9908 	 111.393 	 
C 	 -43.2116 	 53.9239 	 110.603 	 
C 	 -42.2462 	 54.7238 	 109.821 	 
C 	 -40.9451 	 54.3078 	 110.066 	 
H 	 -44.2361 	 53.9877 	 110.674 	 
C 	 -42.6664 	 55.8331 	 108.872 	 
H 	 -42.2539 	 56.7951 	 109.1 	 
H 	 -43.6262 	 56.0734 	 109.26 	 
C 	 -42.828 	 55.5583 	 107.357 	 
H 	 -41.8348 	 55.355 	 107.077 	 
H 	 -43.0377 	 56.4763 	 106.829 	 
C 	 -43.9284 	 54.5843 	 106.879 	 
H 	 -44.0352 	 53.6871 	 107.455 	 
H 	 -43.9167 	 54.3448 	 105.826 	 
H 	 -44.852 	 55.0986 	 107.03 	 
H 	 -36.1745 	 54.8088 	 108.525 	 
H 	 -43.1884 	 52.2635 	 111.963 	 
