34

S 	 6.10976 	 -14.09 	 52.767 	 
C 	 4.4374 	 -14.2309 	 52.2938 	 
C 	 3.85308 	 -15.3668 	 52.8956 	 
C 	 4.84078 	 -16.1243 	 53.5703 	 
C 	 6.09805 	 -15.5443 	 53.6548 	 
H 	 4.68167 	 -17.1459 	 53.9345 	 
C 	 2.43977 	 -15.9597 	 52.8452 	 
H 	 2.44246 	 -17.0683 	 52.6431 	 
H 	 2.10092 	 -15.3937 	 52.0141 	 
C 	 1.60499 	 -15.6632 	 54.1831 	 
H 	 0.565767 	 -15.8772 	 53.838 	 
H 	 1.90592 	 -16.3797 	 54.916 	 
C 	 1.66277 	 -14.2227 	 54.6387 	 
H 	 0.879803 	 -13.9386 	 55.4515 	 
H 	 2.65575 	 -13.8754 	 54.9077 	 
H 	 1.34857 	 -13.6524 	 53.7898 	 
S 	 8.40953 	 -16.978 	 52.8723 	 
C 	 9.26165 	 -17.8748 	 54.095 	 
C 	 8.65476 	 -17.7537 	 55.3399 	 
C 	 7.599 	 -16.7983 	 55.3645 	 
C 	 7.25245 	 -16.313 	 54.0869 	 
H 	 9.11753 	 -18.2452 	 56.1461 	 
C 	 6.77136 	 -16.4214 	 56.6092 	 
H 	 6.19881 	 -17.3643 	 56.6747 	 
H 	 6.06084 	 -15.7163 	 56.324 	 
C 	 7.52536 	 -16.1825 	 57.8991 	 
H 	 8.1642 	 -15.3517 	 57.7867 	 
H 	 8.2376 	 -16.9756 	 58.123 	 
C 	 6.80395 	 -16.1682 	 59.1708 	 
H 	 6.27934 	 -15.1861 	 59.3679 	 
H 	 7.40858 	 -16.2809 	 60.0353 	 
H 	 6.19288 	 -17.0265 	 59.2327 	 
H 	 3.82016 	 -13.5058 	 51.7736 	 
H 	 10.198 	 -18.4127 	 54.0895 	 
