34

S 	 4.17568 	 -20.4781 	 52.5523 	 
C 	 3.05748 	 -21.8081 	 52.3632 	 
C 	 3.52565 	 -22.9672 	 52.9227 	 
C 	 4.85736 	 -22.7998 	 53.4649 	 
C 	 5.30597 	 -21.4772 	 53.3887 	 
H 	 5.44602 	 -23.5495 	 53.9637 	 
C 	 2.74835 	 -24.2511 	 52.8673 	 
H 	 3.46455 	 -24.9121 	 52.3872 	 
H 	 1.86479 	 -24.1596 	 52.2703 	 
C 	 2.25804 	 -24.769 	 54.2422 	 
H 	 1.91404 	 -25.8168 	 54.201 	 
H 	 3.13502 	 -24.946 	 54.9285 	 
C 	 1.20727 	 -23.842 	 54.8859 	 
H 	 0.299821 	 -23.7619 	 54.307 	 
H 	 1.01551 	 -24.0965 	 55.9003 	 
H 	 1.5299 	 -22.84 	 54.8251 	 
S 	 7.44089 	 -20.5395 	 51.9818 	 
C 	 8.97613 	 -20.6745 	 52.689 	 
C 	 8.93459 	 -20.9494 	 54.0661 	 
C 	 7.61682 	 -21.2964 	 54.4635 	 
C 	 6.72476 	 -21.1941 	 53.3884 	 
H 	 9.73596 	 -21.0399 	 54.7888 	 
C 	 7.26848 	 -21.9183 	 55.8443 	 
H 	 6.24723 	 -22.41 	 55.8229 	 
H 	 7.27072 	 -21.1401 	 56.5517 	 
C 	 8.19462 	 -23.0092 	 56.3797 	 
H 	 8.05984 	 -23.2516 	 57.4044 	 
H 	 9.22578 	 -22.6469 	 56.2185 	 
C 	 8.01653 	 -24.2267 	 55.6033 	 
H 	 7.00154 	 -24.6127 	 55.7756 	 
H 	 8.70414 	 -24.9603 	 56.0291 	 
H 	 8.23874 	 -24.1898 	 54.5054 	 
H 	 2.07171 	 -21.6552 	 51.8867 	 
H 	 9.81181 	 -20.3961 	 52.1176 	 
