34

S 	 -69.4781 	 48.2768 	 123.896 	 
C 	 -68.9691 	 48.9267 	 122.313 	 
C 	 -70.0095 	 49.79 	 121.82 	 
C 	 -71.1343 	 49.8407 	 122.761 	 
C 	 -70.9489 	 49.2112 	 123.961 	 
H 	 -72.0412 	 50.4777 	 122.607 	 
C 	 -69.9156 	 50.6213 	 120.626 	 
H 	 -70.7405 	 50.5101 	 120.062 	 
H 	 -69.1149 	 50.3219 	 119.986 	 
C 	 -69.8087 	 52.1216 	 120.876 	 
H 	 -70.1009 	 52.6677 	 119.909 	 
H 	 -70.5743 	 52.4903 	 121.593 	 
C 	 -68.3662 	 52.5569 	 121.341 	 
H 	 -68.25 	 53.6141 	 121.426 	 
H 	 -68.1347 	 52.1565 	 122.28 	 
H 	 -67.6553 	 52.1019 	 120.667 	 
S 	 -73.5277 	 48.6292 	 124.367 	 
C 	 -74.2243 	 48.6005 	 125.968 	 
C 	 -73.2694 	 48.9675 	 126.863 	 
C 	 -71.9858 	 49.2093 	 126.304 	 
C 	 -71.9596 	 49.1174 	 124.959 	 
H 	 -73.4688 	 49.1827 	 127.844 	 
C 	 -70.819 	 49.6658 	 127.202 	 
H 	 -69.8647 	 49.4257 	 126.781 	 
H 	 -70.8765 	 49.2627 	 128.208 	 
C 	 -70.8787 	 51.2147 	 127.432 	 
H 	 -70.233 	 51.3953 	 128.296 	 
H 	 -71.9538 	 51.4624 	 127.715 	 
C 	 -70.4034 	 52.0015 	 126.198 	 
H 	 -71.0318 	 51.5871 	 125.396 	 
H 	 -69.3296 	 51.686 	 125.992 	 
H 	 -70.4563 	 53.1009 	 126.363 	 
H 	 -68.0074 	 48.7525 	 121.81 	 
H 	 -75.2809 	 48.5445 	 126.161 	 
