34

S 	 -14.3158 	 39.0421 	 29.2632 	 
C 	 -15.7658 	 38.2059 	 29.6272 	 
C 	 -16.6505 	 39.1262 	 30.2653 	 
C 	 -16.1597 	 40.4478 	 30.3947 	 
C 	 -14.8511 	 40.5732 	 29.8928 	 
H 	 -16.5201 	 41.3332 	 30.8533 	 
C 	 -17.9875 	 38.832 	 30.824 	 
H 	 -17.9649 	 39.085 	 31.9204 	 
H 	 -18.2202 	 37.7855 	 30.6569 	 
C 	 -19.2297 	 39.5309 	 30.1252 	 
H 	 -20.1723 	 39.1661 	 30.5653 	 
H 	 -19.265 	 40.6549 	 30.4089 	 
C 	 -19.3396 	 39.5095 	 28.5751 	 
H 	 -20.2718 	 40.1315 	 28.2371 	 
H 	 -18.5491 	 40.0175 	 28.1618 	 
H 	 -19.3712 	 38.4534 	 28.0448 	 
S 	 -12.9076 	 41.6958 	 28.3214 	 
C 	 -11.9053 	 43.0113 	 28.9149 	 
C 	 -12.4555 	 43.4356 	 30.1274 	 
C 	 -13.6633 	 42.7856 	 30.5074 	 
C 	 -13.9821 	 41.7162 	 29.6835 	 
H 	 -11.9929 	 44.3544 	 30.5997 	 
C 	 -14.3099 	 43.0576 	 31.8446 	 
H 	 -13.5049 	 43.4674 	 32.4439 	 
H 	 -14.5627 	 42.069 	 32.1714 	 
C 	 -15.6135 	 44.0072 	 31.7894 	 
H 	 -15.9061 	 44.1188 	 32.9349 	 
H 	 -16.4884 	 43.472 	 31.4134 	 
C 	 -15.4536 	 45.4193 	 31.268 	 
H 	 -15.2509 	 45.4587 	 30.1893 	 
H 	 -14.6107 	 45.9771 	 31.7826 	 
H 	 -16.4104 	 45.8701 	 31.4237 	 
H 	 -16.001 	 37.1628 	 29.3676 	 
H 	 -11.0604 	 43.3629 	 28.3168 	 
