34

S 	 -92.8158 	 62.4974 	 123.022 	 
C 	 -93.3673 	 60.872 	 122.702 	 
C 	 -92.6753 	 59.9033 	 123.467 	 
C 	 -91.7925 	 60.5409 	 124.385 	 
C 	 -91.8011 	 61.9321 	 124.358 	 
H 	 -91.23 	 60.1397 	 125.146 	 
C 	 -92.8296 	 58.397 	 123.292 	 
H 	 -93.0055 	 58.347 	 122.177 	 
H 	 -93.7702 	 58.038 	 123.792 	 
C 	 -91.54 	 57.6187 	 123.668 	 
H 	 -90.6694 	 58.1433 	 123.365 	 
H 	 -91.5709 	 57.7235 	 124.714 	 
C 	 -91.7698 	 56.1844 	 123.19 	 
H 	 -91.1078 	 55.5187 	 123.795 	 
H 	 -92.7422 	 55.9824 	 123.467 	 
H 	 -91.5353 	 56.0569 	 122.138 	 
S 	 -92.4678 	 64.2006 	 125.785 	 
C 	 -91.224 	 64.9659 	 126.778 	 
C 	 -90.0648 	 64.2029 	 126.764 	 
C 	 -90.1007 	 63.0414 	 126.023 	 
C 	 -91.2469 	 62.9282 	 125.302 	 
H 	 -89.2761 	 64.563 	 127.436 	 
C 	 -88.975 	 61.9867 	 125.941 	 
H 	 -89.2694 	 61.0161 	 126.326 	 
H 	 -88.1569 	 62.2365 	 126.581 	 
C 	 -88.3757 	 61.7901 	 124.519 	 
H 	 -88.0689 	 62.7227 	 124.05 	 
H 	 -89.0314 	 61.2408 	 123.845 	 
C 	 -87.0962 	 60.9893 	 124.466 	 
H 	 -86.334 	 61.518 	 125.006 	 
H 	 -86.6818 	 60.8555 	 123.409 	 
H 	 -87.2201 	 60.0464 	 125.026 	 
H 	 -94.1054 	 60.4689 	 121.961 	 
H 	 -91.2177 	 65.8984 	 127.338 	 
