34

S 	 -12.4172 	 41.8099 	 39.8014 	 
C 	 -13.4362 	 40.4198 	 39.7208 	 
C 	 -12.6521 	 39.2758 	 39.5155 	 
C 	 -11.2629 	 39.5944 	 39.581 	 
C 	 -10.9749 	 40.9024 	 39.8456 	 
H 	 -10.4839 	 38.8408 	 39.4008 	 
C 	 -13.1811 	 37.9328 	 39.2055 	 
H 	 -12.6367 	 37.694 	 38.2996 	 
H 	 -14.2357 	 37.806 	 38.9429 	 
C 	 -13.0602 	 36.9935 	 40.3931 	 
H 	 -11.9715 	 36.7447 	 40.584 	 
H 	 -13.4565 	 37.3782 	 41.3566 	 
C 	 -13.6572 	 35.6026 	 40.1387 	 
H 	 -14.6775 	 35.4801 	 40.1925 	 
H 	 -13.2592 	 35.1703 	 39.1363 	 
H 	 -13.2463 	 34.8526 	 40.8272 	 
S 	 -9.33979 	 42.27 	 41.4366 	 
C 	 -7.67553 	 42.4128 	 41.1858 	 
C 	 -7.32082 	 41.8256 	 39.9666 	 
C 	 -8.42998 	 41.3209 	 39.2473 	 
C 	 -9.63228 	 41.4479 	 39.9647 	 
H 	 -6.30762 	 41.8711 	 39.6669 	 
C 	 -8.3353 	 40.7724 	 37.8697 	 
H 	 -9.28937 	 40.8 	 37.3743 	 
H 	 -8.14414 	 39.6567 	 38.1357 	 
C 	 -7.19649 	 41.3759 	 36.955 	 
H 	 -6.24073 	 40.9567 	 37.2669 	 
H 	 -7.15789 	 42.4715 	 37.0569 	 
C 	 -7.46455 	 40.9873 	 35.5221 	 
H 	 -8.30755 	 41.5055 	 35.0593 	 
H 	 -7.63516 	 39.8841 	 35.458 	 
H 	 -6.58179 	 41.2918 	 34.9128 	 
H 	 -14.5616 	 40.3179 	 39.7185 	 
H 	 -6.84412 	 42.8443 	 41.802 	 
