34

S 	 35.2524 	 3.56383 	 89.0038 	 
C 	 33.9646 	 3.29315 	 87.8074 	 
C 	 34.4377 	 3.19847 	 86.485 	 
C 	 35.8679 	 3.29946 	 86.546 	 
C 	 36.4748 	 3.43137 	 87.7571 	 
H 	 36.4925 	 3.2588 	 85.693 	 
C 	 33.6787 	 2.95694 	 85.1862 	 
H 	 32.7136 	 2.55688 	 85.4352 	 
H 	 34.2063 	 2.17793 	 84.6484 	 
C 	 33.3849 	 4.19886 	 84.3043 	 
H 	 34.3957 	 4.62978 	 84.1416 	 
H 	 32.956 	 3.92873 	 83.2813 	 
C 	 32.4694 	 5.17325 	 84.9498 	 
H 	 32.4645 	 6.10699 	 84.4159 	 
H 	 31.4729 	 4.8927 	 85.0141 	 
H 	 32.7514 	 5.36128 	 85.9717 	 
S 	 38.5586 	 2.31352 	 89.1423 	 
C 	 40.2685 	 2.70459 	 88.7378 	 
C 	 40.2472 	 3.69956 	 87.7377 	 
C 	 38.9376 	 4.22715 	 87.3982 	 
C 	 37.945 	 3.42833 	 87.9822 	 
H 	 41.1549 	 4.05115 	 87.3949 	 
C 	 38.8221 	 5.31931 	 86.3473 	 
H 	 38.0092 	 5.08493 	 85.6414 	 
H 	 39.6373 	 5.40591 	 85.6625 	 
C 	 38.6086 	 6.71228 	 86.9907 	 
H 	 39.4386 	 7.06957 	 87.5782 	 
H 	 37.8687 	 6.70655 	 87.799 	 
C 	 38.2216 	 7.78477 	 85.9754 	 
H 	 38.262 	 8.74665 	 86.4221 	 
H 	 37.2276 	 7.68238 	 85.622 	 
H 	 38.9239 	 7.78569 	 85.1973 	 
H 	 32.916 	 3.39612 	 87.8568 	 
H 	 41.1421 	 2.62147 	 89.3869 	 
