34

S 	 -113.756 	 42.636 	 133.503 	 
C 	 -114.229 	 41.6224 	 134.843 	 
C 	 -114.712 	 42.3433 	 135.904 	 
C 	 -114.818 	 43.7833 	 135.566 	 
C 	 -114.46 	 44.0502 	 134.264 	 
H 	 -115.204 	 44.5758 	 136.236 	 
C 	 -115.222 	 41.7714 	 137.218 	 
H 	 -116.124 	 41.2435 	 137.108 	 
H 	 -115.581 	 42.5766 	 137.849 	 
C 	 -114.313 	 40.9075 	 138.085 	 
H 	 -114.943 	 40.6029 	 138.882 	 
H 	 -114.012 	 39.918 	 137.642 	 
C 	 -112.986 	 41.6008 	 138.344 	 
H 	 -112.391 	 40.9646 	 139.046 	 
H 	 -112.447 	 41.7846 	 137.321 	 
H 	 -113.151 	 42.5181 	 138.862 	 
S 	 -113.339 	 45.6524 	 132.368 	 
C 	 -113.964 	 47.2437 	 132.093 	 
C 	 -114.989 	 47.6459 	 132.945 	 
C 	 -115.345 	 46.5453 	 133.825 	 
C 	 -114.605 	 45.3901 	 133.574 	 
H 	 -115.299 	 48.7012 	 132.859 	 
C 	 -116.463 	 46.6935 	 134.807 	 
H 	 -116.101 	 46.5733 	 135.877 	 
H 	 -117.019 	 45.8779 	 134.343 	 
C 	 -117.382 	 47.9823 	 134.668 	 
H 	 -117.535 	 48.0211 	 133.588 	 
H 	 -116.916 	 48.813 	 135.048 	 
C 	 -118.762 	 47.802 	 135.385 	 
H 	 -119.325 	 46.8995 	 134.908 	 
H 	 -119.299 	 48.6816 	 135.241 	 
H 	 -118.641 	 47.6948 	 136.476 	 
H 	 -113.953 	 40.5393 	 134.847 	 
H 	 -113.34 	 48.0367 	 131.573 	 
