34

S 	 -8.72584 	 32.922 	 54.2475 	 
C 	 -9.40696 	 31.3742 	 54.4618 	 
C 	 -8.80396 	 30.4314 	 53.6928 	 
C 	 -7.68784 	 30.9645 	 52.9653 	 
C 	 -7.44088 	 32.3097 	 53.2103 	 
H 	 -6.99438 	 30.3675 	 52.4838 	 
C 	 -9.07429 	 28.9737 	 53.7516 	 
H 	 -9.29218 	 28.4726 	 52.7912 	 
H 	 -10.0663 	 28.9219 	 54.166 	 
C 	 -8.14192 	 28.0818 	 54.5629 	 
H 	 -8.60214 	 27.0717 	 54.333 	 
H 	 -7.12744 	 28.0098 	 54.1501 	 
C 	 -8.10627 	 28.3925 	 56.0148 	 
H 	 -9.11834 	 28.3629 	 56.4768 	 
H 	 -7.53633 	 27.5419 	 56.4659 	 
H 	 -7.5189 	 29.2416 	 56.3171 	 
S 	 -5.4001 	 34.1157 	 53.7002 	 
C 	 -4.55395 	 34.8369 	 52.3715 	 
C 	 -4.95146 	 34.2578 	 51.193 	 
C 	 -5.99219 	 33.2615 	 51.3186 	 
C 	 -6.36795 	 33.0968 	 52.6267 	 
H 	 -4.52722 	 34.5733 	 50.2703 	 
C 	 -6.71528 	 32.8375 	 50.0897 	 
H 	 -6.92064 	 33.714 	 49.3691 	 
H 	 -7.71156 	 32.3566 	 50.2732 	 
C 	 -6.06091 	 31.7023 	 49.2304 	 
H 	 -6.01146 	 30.9164 	 49.9276 	 
H 	 -5.03512 	 31.9781 	 49.05 	 
C 	 -6.83055 	 31.3995 	 47.9185 	 
H 	 -7.16437 	 32.365 	 47.4751 	 
H 	 -7.69432 	 30.8583 	 48.1892 	 
H 	 -6.34792 	 30.7487 	 47.2299 	 
H 	 -10.2374 	 31.3043 	 55.0159 	 
H 	 -3.74427 	 35.5567 	 52.4781 	 
