34

S 	 50.9222 	 14.0445 	 86.5832 	 
C 	 49.2149 	 14.4336 	 86.5444 	 
C 	 48.6724 	 14.2564 	 85.2733 	 
C 	 49.5872 	 13.4796 	 84.4221 	 
C 	 50.8606 	 13.3857 	 84.9072 	 
H 	 49.382 	 13.1859 	 83.377 	 
C 	 47.2037 	 14.3166 	 84.8445 	 
H 	 46.5599 	 14.7409 	 85.682 	 
H 	 46.8514 	 13.2939 	 84.6333 	 
C 	 46.9306 	 15.3721 	 83.6979 	 
H 	 47.6406 	 15.1559 	 82.9048 	 
H 	 45.9339 	 15.229 	 83.374 	 
C 	 47.1299 	 16.8853 	 84.0638 	 
H 	 47.0943 	 17.6311 	 83.2528 	 
H 	 46.356 	 17.2636 	 84.7491 	 
H 	 48.1285 	 17.0904 	 84.3815 	 
S 	 52.6244 	 13.3372 	 82.8501 	 
C 	 53.9784 	 12.3239 	 82.8682 	 
C 	 53.7572 	 11.2149 	 83.7042 	 
C 	 52.6539 	 11.4406 	 84.5747 	 
C 	 51.9852 	 12.6555 	 84.2903 	 
H 	 54.3262 	 10.3308 	 83.6596 	 
C 	 52.219 	 10.4795 	 85.6266 	 
H 	 51.5413 	 10.9799 	 86.3865 	 
H 	 53.0357 	 10.0912 	 86.2145 	 
C 	 51.4626 	 9.16177 	 85.1439 	 
H 	 51.225 	 8.5404 	 85.9988 	 
H 	 52.099 	 8.59234 	 84.4736 	 
C 	 50.0868 	 9.27533 	 84.4561 	 
H 	 50.1474 	 9.6695 	 83.4523 	 
H 	 49.5461 	 10.0286 	 84.9905 	 
H 	 49.5114 	 8.35376 	 84.466 	 
H 	 48.5671 	 14.7699 	 87.416 	 
H 	 54.777 	 12.2188 	 82.167 	 
