34

S 	 12.1948 	 -14.0655 	 79.4323 	 
C 	 12.4856 	 -12.6943 	 80.4964 	 
C 	 13.8694 	 -12.4411 	 80.6243 	 
C 	 14.6483 	 -13.387 	 79.8725 	 
C 	 13.9786 	 -14.431 	 79.2612 	 
H 	 15.7632 	 -13.4481 	 79.8742 	 
C 	 14.5537 	 -11.2462 	 81.4184 	 
H 	 15.359 	 -11.622 	 81.9697 	 
H 	 13.9295 	 -10.9605 	 82.1851 	 
C 	 15.0109 	 -10.1412 	 80.4888 	 
H 	 15.8999 	 -10.3111 	 79.9282 	 
H 	 14.3279 	 -9.95728 	 79.6258 	 
C 	 14.9326 	 -8.77189 	 81.2044 	 
H 	 13.8952 	 -8.29407 	 81.3019 	 
H 	 15.2377 	 -8.89204 	 82.2633 	 
H 	 15.667 	 -8.03444 	 80.8057 	 
S 	 13.9128 	 -17.1059 	 78.9789 	 
C 	 15.1264 	 -17.9014 	 78.0814 	 
C 	 15.7334 	 -17.0101 	 77.2657 	 
C 	 15.3781 	 -15.6511 	 77.441 	 
C 	 14.4706 	 -15.5777 	 78.5175 	 
H 	 16.4755 	 -17.3641 	 76.5706 	 
C 	 15.9323 	 -14.4508 	 76.6133 	 
H 	 17.0078 	 -14.5725 	 76.4553 	 
H 	 15.9046 	 -13.581 	 77.3011 	 
C 	 15.2349 	 -14.2108 	 75.3058 	 
H 	 14.1592 	 -14.408 	 75.3461 	 
H 	 15.6481 	 -15.0022 	 74.6076 	 
C 	 15.5 	 -12.7484 	 74.8274 	 
H 	 15.2692 	 -11.9885 	 75.4665 	 
H 	 15.1435 	 -12.554 	 73.7705 	 
H 	 16.5795 	 -12.7114 	 74.7831 	 
H 	 11.7914 	 -12.0004 	 81.0184 	 
H 	 15.2692 	 -18.9967 	 77.9048 	 
