34

S 	 -22.562 	 33.3514 	 41.1385 	 
C 	 -21.501 	 32.0488 	 40.7909 	 
C 	 -22.2754 	 30.8743 	 40.6907 	 
C 	 -23.6593 	 31.1523 	 40.8046 	 
C 	 -24.0369 	 32.4336 	 41.0442 	 
H 	 -24.4594 	 30.4261 	 40.6121 	 
C 	 -21.7735 	 29.4872 	 40.668 	 
H 	 -20.7497 	 29.372 	 40.6989 	 
H 	 -21.9709 	 29.0672 	 39.756 	 
C 	 -22.3155 	 28.4756 	 41.6715 	 
H 	 -22.0349 	 28.8635 	 42.6189 	 
H 	 -23.3809 	 28.5365 	 41.6711 	 
C 	 -21.9681 	 26.9975 	 41.3436 	 
H 	 -22.6293 	 26.5775 	 40.5448 	 
H 	 -20.9292 	 26.935 	 40.9932 	 
H 	 -21.92 	 26.3638 	 42.1991 	 
S 	 -25.7856 	 34.1054 	 39.7929 	 
C 	 -27.4136 	 34.3491 	 40.4824 	 
C 	 -27.5816 	 33.4753 	 41.5209 	 
C 	 -26.4451 	 32.7302 	 41.8998 	 
C 	 -25.3358 	 33.0583 	 41.1435 	 
H 	 -28.5937 	 33.3714 	 41.9369 	 
C 	 -26.4795 	 31.7572 	 43.0739 	 
H 	 -25.4776 	 31.3334 	 43.1353 	 
H 	 -27.2371 	 31.0086 	 42.8993 	 
C 	 -26.7964 	 32.2559 	 44.5662 	 
H 	 -26.0546 	 32.9236 	 44.9696 	 
H 	 -26.7297 	 31.3628 	 45.2126 	 
C 	 -28.1737 	 32.871 	 44.8201 	 
H 	 -29.0611 	 32.326 	 44.669 	 
H 	 -28.2224 	 33.8289 	 44.2869 	 
H 	 -28.2288 	 33.1699 	 45.8655 	 
H 	 -20.4569 	 32.0243 	 41.031 	 
H 	 -28.1604 	 35.0207 	 40.0755 	 
