34

S 	 -44.4674 	 57.0758 	 104.006 	 
C 	 -45.6549 	 57.0093 	 102.653 	 
C 	 -45.111 	 56.1643 	 101.682 	 
C 	 -43.8319 	 55.6107 	 101.937 	 
C 	 -43.4003 	 55.917 	 103.203 	 
H 	 -43.3054 	 54.8936 	 101.302 	 
C 	 -45.9352 	 55.6934 	 100.438 	 
H 	 -45.3041 	 55.9914 	 99.5962 	 
H 	 -46.8499 	 56.2987 	 100.278 	 
C 	 -46.2231 	 54.2223 	 100.335 	 
H 	 -46.6801 	 53.9837 	 99.3791 	 
H 	 -45.2006 	 53.7098 	 100.304 	 
C 	 -47.0841 	 53.592 	 101.465 	 
H 	 -46.8177 	 53.9693 	 102.439 	 
H 	 -48.1955 	 53.8782 	 101.361 	 
H 	 -47.0577 	 52.4867 	 101.55 	 
S 	 -40.7658 	 56.1632 	 102.999 	 
C 	 -39.7221 	 55.2905 	 104.055 	 
C 	 -40.4257 	 54.4791 	 104.917 	 
C 	 -41.8411 	 54.6185 	 104.756 	 
C 	 -42.1571 	 55.6083 	 103.831 	 
H 	 -39.8633 	 53.7399 	 105.47 	 
C 	 -42.8661 	 53.718 	 105.532 	 
H 	 -43.8655 	 54.2241 	 105.496 	 
H 	 -42.597 	 53.7527 	 106.578 	 
C 	 -43.0094 	 52.2646 	 105.092 	 
H 	 -43.3014 	 52.2662 	 103.994 	 
H 	 -43.8317 	 51.8929 	 105.626 	 
C 	 -41.8178 	 51.4942 	 105.389 	 
H 	 -41.243 	 51.4198 	 104.442 	 
H 	 -42.1693 	 50.5199 	 105.777 	 
H 	 -41.1714 	 51.9698 	 106.168 	 
H 	 -46.597 	 57.5699 	 102.731 	 
H 	 -38.6134 	 55.2873 	 103.946 	 
