34

S 	 -2.05916 	 80.3452 	 49.7534 	 
C 	 -1.13243 	 80.3527 	 51.2526 	 
C 	 0.0495312 	 79.6298 	 51.1115 	 
C 	 0.193497 	 79.1291 	 49.7633 	 
C 	 -0.925868 	 79.3085 	 48.9265 	 
H 	 1.00919 	 78.5355 	 49.4166 	 
C 	 1.11962 	 79.2778 	 52.1181 	 
H 	 1.22665 	 78.2287 	 51.9685 	 
H 	 0.776071 	 79.4095 	 53.1604 	 
C 	 2.47355 	 79.9576 	 51.908 	 
H 	 3.25429 	 79.4054 	 52.4291 	 
H 	 2.69469 	 79.9954 	 50.8033 	 
C 	 2.50241 	 81.4587 	 52.3832 	 
H 	 3.37386 	 82.1165 	 52.239 	 
H 	 1.75652 	 81.9809 	 51.8216 	 
H 	 2.19335 	 81.6216 	 53.4101 	 
S 	 -2.58803 	 78.2734 	 47.0298 	 
C 	 -2.27317 	 78.4711 	 45.3081 	 
C 	 -1.21707 	 79.3216 	 45.1648 	 
C 	 -0.426148 	 79.5268 	 46.344 	 
C 	 -1.12373 	 79.06 	 47.4914 	 
H 	 -0.953921 	 79.5578 	 44.1221 	 
C 	 0.839245 	 80.3436 	 46.3358 	 
H 	 1.16187 	 80.4261 	 47.3789 	 
H 	 0.481972 	 81.2681 	 45.8668 	 
C 	 1.97809 	 79.7518 	 45.4726 	 
H 	 2.83137 	 80.3683 	 45.3703 	 
H 	 1.58146 	 79.699 	 44.5087 	 
C 	 2.29647 	 78.3801 	 46.066 	 
H 	 1.50093 	 77.7293 	 45.9966 	 
H 	 2.62863 	 78.5679 	 47.089 	 
H 	 3.14335 	 77.983 	 45.5792 	 
H 	 -1.39282 	 80.8967 	 52.1961 	 
H 	 -2.8809 	 78.1071 	 44.5312 	 
