34

S 	 -0.435469 	 -15.4513 	 82.8609 	 
C 	 -0.00542772 	 -16.4763 	 81.5061 	 
C 	 -0.616642 	 -15.9901 	 80.37 	 
C 	 -1.52042 	 -14.8573 	 80.6281 	 
C 	 -1.61556 	 -14.5579 	 81.9422 	 
H 	 -2.00437 	 -14.2611 	 79.8181 	 
C 	 -0.56246 	 -16.5334 	 78.991 	 
H 	 -1.54102 	 -16.3066 	 78.5865 	 
H 	 -0.602578 	 -17.6037 	 78.9802 	 
C 	 0.62348 	 -15.8736 	 78.1602 	 
H 	 1.57542 	 -15.8164 	 78.6919 	 
H 	 0.717691 	 -16.4311 	 77.1883 	 
C 	 0.368624 	 -14.5034 	 77.7389 	 
H 	 1.16805 	 -14.0504 	 77.1714 	 
H 	 -0.432087 	 -14.5355 	 76.9935 	 
H 	 0.179693 	 -13.794 	 78.5342 	 
S 	 -1.21385 	 -12.0755 	 83.0011 	 
C 	 -2.54655 	 -10.9492 	 83.0251 	 
C 	 -3.75954 	 -11.5614 	 82.755 	 
C 	 -3.57771 	 -12.8908 	 82.3744 	 
C 	 -2.25431 	 -13.316 	 82.4392 	 
H 	 -4.54718 	 -10.9483 	 82.727 	 
C 	 -4.82606 	 -13.6554 	 81.9211 	 
H 	 -5.66998 	 -12.9963 	 82.0612 	 
H 	 -4.82361 	 -14.5253 	 82.6375 	 
C 	 -4.98994 	 -14.0626 	 80.4977 	 
H 	 -4.25003 	 -14.8371 	 80.3168 	 
H 	 -4.86112 	 -13.265 	 79.817 	 
C 	 -6.32533 	 -14.6938 	 80.1523 	 
H 	 -6.23915 	 -15.1616 	 79.2259 	 
H 	 -7.04089 	 -13.9329 	 79.9356 	 
H 	 -6.63653 	 -15.3023 	 80.9849 	 
H 	 0.431186 	 -17.4715 	 81.4779 	 
H 	 -2.41625 	 -9.95562 	 83.3551 	 
