34

S 	 -42.7879 	 24.0497 	 80.2791 	 
C 	 -43.6655 	 25.5369 	 80.5559 	 
C 	 -45.0187 	 25.261 	 80.7588 	 
C 	 -45.3022 	 23.8506 	 80.6909 	 
C 	 -44.2588 	 23.029 	 80.6381 	 
H 	 -46.3355 	 23.4592 	 80.7002 	 
C 	 -46.1713 	 26.1854 	 80.8597 	 
H 	 -47.1305 	 25.6511 	 80.5651 	 
H 	 -46.0321 	 27.0167 	 80.2369 	 
C 	 -46.4075 	 26.6521 	 82.3256 	 
H 	 -46.5952 	 25.7101 	 82.9525 	 
H 	 -45.5654 	 27.2229 	 82.675 	 
C 	 -47.6289 	 27.5823 	 82.4768 	 
H 	 -47.5136 	 28.6278 	 82.0975 	 
H 	 -48.5143 	 27.1307 	 81.9237 	 
H 	 -47.9722 	 27.7244 	 83.5059 	 
S 	 -44.5553 	 20.7994 	 78.8912 	 
C 	 -44.6452 	 19.2437 	 79.5931 	 
C 	 -44.4322 	 19.2955 	 80.9437 	 
C 	 -44.3529 	 20.61 	 81.4465 	 
C 	 -44.4003 	 21.5678 	 80.4614 	 
H 	 -44.3808 	 18.3652 	 81.5172 	 
C 	 -44.2137 	 21 	 82.9374 	 
H 	 -44.9392 	 21.7802 	 83.2518 	 
H 	 -43.1754 	 21.5425 	 82.9138 	 
C 	 -44.3487 	 19.8979 	 83.9525 	 
H 	 -43.5071 	 19.1576 	 83.8778 	 
H 	 -45.229 	 19.3633 	 83.5942 	 
C 	 -44.3957 	 20.4081 	 85.4336 	 
H 	 -44.8995 	 19.6502 	 86.1223 	 
H 	 -44.9414 	 21.2908 	 85.6101 	 
H 	 -43.3249 	 20.5402 	 85.7143 	 
H 	 -43.325 	 26.5216 	 80.5722 	 
H 	 -44.6314 	 18.374 	 78.9966 	 
