34

S 	 -13.3987 	 54.2146 	 29.2208 	 
C 	 -12.6215 	 53.1608 	 27.9732 	 
C 	 -11.4689 	 52.5718 	 28.5668 	 
C 	 -11.3763 	 52.8004 	 29.9909 	 
C 	 -12.2871 	 53.6597 	 30.5173 	 
H 	 -10.6529 	 52.5531 	 30.7011 	 
C 	 -10.5992 	 51.4977 	 27.9028 	 
H 	 -9.63265 	 51.6424 	 28.2961 	 
H 	 -10.5096 	 51.7751 	 26.8178 	 
C 	 -10.9653 	 50.0385 	 28.0659 	 
H 	 -11.2381 	 49.8265 	 29.1306 	 
H 	 -11.8528 	 49.8265 	 27.5159 	 
C 	 -9.71843 	 49.2514 	 27.6001 	 
H 	 -9.48602 	 49.3836 	 26.6147 	 
H 	 -8.82816 	 49.719 	 28.0366 	 
H 	 -9.78325 	 48.1919 	 27.8787 	 
S 	 -11.6346 	 55.8763 	 31.9921 	 
C 	 -11.7504 	 55.7314 	 33.7339 	 
C 	 -12.168 	 54.4973 	 34.1191 	 
C 	 -12.3725 	 53.5816 	 33.006 	 
C 	 -12.2102 	 54.2452 	 31.8309 	 
H 	 -12.3559 	 54.277 	 35.1104 	 
C 	 -12.7473 	 52.1709 	 33.1842 	 
H 	 -11.9171 	 51.6547 	 33.786 	 
H 	 -12.7183 	 51.5645 	 32.3133 	 
C 	 -14.2459 	 51.9628 	 33.6858 	 
H 	 -14.9431 	 52.5402 	 33.0066 	 
H 	 -14.441 	 52.5022 	 34.592 	 
C 	 -14.6286 	 50.4506 	 33.765 	 
H 	 -14.062 	 49.853 	 33.1069 	 
H 	 -15.6889 	 50.1986 	 33.5502 	 
H 	 -14.397 	 50.0513 	 34.7284 	 
H 	 -12.99 	 53.1122 	 26.9834 	 
H 	 -11.7154 	 56.6724 	 34.4166 	 
