34

S 	 25.246 	 -9.60185 	 77.08 	 
C 	 25.5123 	 -10.8508 	 75.7838 	 
C 	 26.6504 	 -11.6145 	 76.0703 	 
C 	 27.2336 	 -11.2301 	 77.3633 	 
C 	 26.5032 	 -10.2598 	 78.037 	 
H 	 28.1443 	 -11.5733 	 77.8235 	 
C 	 27.2082 	 -12.6679 	 75.1551 	 
H 	 26.3012 	 -13.2823 	 74.9106 	 
H 	 28.0271 	 -13.1618 	 75.6733 	 
C 	 27.6916 	 -12.101 	 73.7918 	 
H 	 26.7777 	 -11.7645 	 73.2681 	 
H 	 28.4318 	 -11.3196 	 73.9127 	 
C 	 28.4377 	 -13.2278 	 73.0273 	 
H 	 27.9926 	 -14.2714 	 73.1325 	 
H 	 28.7616 	 -12.961 	 71.9997 	 
H 	 29.3874 	 -13.3751 	 73.6172 	 
S 	 26.865 	 -10.7385 	 80.7593 	 
C 	 27.4534 	 -9.45152 	 81.7558 	 
C 	 27.4107 	 -8.25647 	 81.1116 	 
C 	 26.9633 	 -8.38788 	 79.7287 	 
C 	 26.7879 	 -9.71486 	 79.3253 	 
H 	 27.6736 	 -7.37575 	 81.6612 	 
C 	 26.8888 	 -7.23565 	 78.8249 	 
H 	 26.9734 	 -6.34383 	 79.356 	 
H 	 25.9481 	 -7.25814 	 78.2918 	 
C 	 27.9319 	 -7.26725 	 77.6317 	 
H 	 27.7672 	 -8.14068 	 76.9821 	 
H 	 28.9176 	 -7.42615 	 77.9561 	 
C 	 27.8285 	 -5.94043 	 76.9254 	 
H 	 26.9189 	 -5.96247 	 76.3608 	 
H 	 28.6473 	 -5.77691 	 76.2415 	 
H 	 27.8162 	 -5.09654 	 77.547 	 
H 	 24.949 	 -10.8142 	 74.8569 	 
H 	 27.8417 	 -9.5819 	 82.7591 	 
