34

S 	 11.894 	 -9.00958 	 70.1197 	 
C 	 10.1407 	 -8.49082 	 70.0703 	 
C 	 9.41047 	 -9.18352 	 69.0449 	 
C 	 10.2506 	 -10.12 	 68.5195 	 
C 	 11.5263 	 -10.3082 	 68.9922 	 
H 	 9.86414 	 -10.7393 	 67.6857 	 
C 	 7.94833 	 -8.90537 	 68.5878 	 
H 	 7.72281 	 -9.42894 	 67.6774 	 
H 	 7.80811 	 -7.80252 	 68.4073 	 
C 	 6.70924 	 -9.25838 	 69.418 	 
H 	 6.76311 	 -10.3104 	 69.7737 	 
H 	 6.65783 	 -8.65451 	 70.3316 	 
C 	 5.348 	 -9.14936 	 68.6052 	 
H 	 5.4197 	 -9.74624 	 67.7373 	 
H 	 4.45132 	 -9.47112 	 69.1326 	 
H 	 5.09374 	 -8.20324 	 68.2096 	 
S 	 13.5535 	 -12.1291 	 69.8813 	 
C 	 14.3214 	 -13.0855 	 68.6576 	 
C 	 13.8883 	 -12.7641 	 67.3827 	 
C 	 12.8357 	 -11.7672 	 67.3621 	 
C 	 12.5616 	 -11.3407 	 68.6249 	 
H 	 14.2214 	 -13.3211 	 66.464 	 
C 	 12.2146 	 -11.2533 	 66.0539 	 
H 	 13.0111 	 -10.9784 	 65.3465 	 
H 	 11.6784 	 -10.3102 	 66.3854 	 
C 	 11.3597 	 -12.3791 	 65.4204 	 
H 	 10.5489 	 -12.4093 	 66.1115 	 
H 	 11.8561 	 -13.4131 	 65.4239 	 
C 	 10.9581 	 -12.0739 	 64.0445 	 
H 	 11.7935 	 -11.7042 	 63.4188 	 
H 	 10.2324 	 -11.2395 	 64.0304 	 
H 	 10.4092 	 -12.832 	 63.5435 	 
H 	 9.72004 	 -7.67756 	 70.5467 	 
H 	 15.0109 	 -13.9314 	 68.8689 	 
