34

S 	 35.7196 	 3.07293 	 72.4638 	 
C 	 34.8163 	 4.16647 	 71.548 	 
C 	 33.4291 	 3.95619 	 71.639 	 
C 	 33.1185 	 2.94531 	 72.5994 	 
C 	 34.2626 	 2.32164 	 73.1397 	 
H 	 32.1656 	 2.48536 	 72.8695 	 
C 	 32.3385 	 4.61068 	 70.8126 	 
H 	 31.599 	 4.91232 	 71.5322 	 
H 	 31.9276 	 3.86905 	 70.0762 	 
C 	 32.6306 	 5.79456 	 69.9415 	 
H 	 33.3702 	 5.48348 	 69.1276 	 
H 	 31.6871 	 6.16523 	 69.3955 	 
C 	 33.1611 	 7.08414 	 70.6607 	 
H 	 32.687 	 7.39246 	 71.5613 	 
H 	 34.1759 	 6.95559 	 70.9713 	 
H 	 33.1448 	 7.952 	 69.8953 	 
S 	 33.9606 	 -0.381554 	 73.5764 	 
C 	 34.0927 	 -0.923103 	 75.2136 	 
C 	 34.2293 	 0.0581772 	 76.1378 	 
C 	 34.3235 	 1.35748 	 75.5382 	 
C 	 34.2306 	 1.30408 	 74.145 	 
H 	 34.2028 	 -0.259387 	 77.16 	 
C 	 34.7049 	 2.59547 	 76.3233 	 
H 	 34.2219 	 3.42098 	 75.7882 	 
H 	 35.7298 	 2.71185 	 76.298 	 
C 	 34.1819 	 2.56546 	 77.7819 	 
H 	 34.634 	 3.45891 	 78.2345 	 
H 	 34.6418 	 1.73688 	 78.3733 	 
C 	 32.5824 	 2.50401 	 77.9163 	 
H 	 32.2576 	 2.27878 	 78.877 	 
H 	 32.0971 	 1.93457 	 77.1755 	 
H 	 32.3078 	 3.51669 	 77.7147 	 
H 	 35.2415 	 4.9604 	 70.9055 	 
H 	 33.8796 	 -1.88468 	 75.6503 	 
