34

S 	 -0.418711 	 -24.0582 	 58.0193 	 
C 	 -0.0529461 	 -22.3815 	 58.0154 	 
C 	 0.157469 	 -21.8938 	 59.3125 	 
C 	 -0.0763316 	 -22.9288 	 60.2603 	 
C 	 -0.289805 	 -24.1746 	 59.7531 	 
H 	 0.104404 	 -22.9239 	 61.3122 	 
C 	 0.544222 	 -20.4855 	 59.7446 	 
H 	 -0.355254 	 -20.1286 	 60.3593 	 
H 	 0.676032 	 -19.7941 	 58.865 	 
C 	 1.76171 	 -20.5299 	 60.6974 	 
H 	 1.93673 	 -19.4837 	 60.9695 	 
H 	 1.62855 	 -21.1219 	 61.655 	 
C 	 3.06049 	 -21.0324 	 60.0059 	 
H 	 3.32783 	 -20.6422 	 59.0287 	 
H 	 3.89349 	 -21.0003 	 60.6981 	 
H 	 3.03846 	 -22.1293 	 59.978 	 
S 	 -2.25959 	 -25.9158 	 60.6837 	 
C 	 -1.79371 	 -27.3028 	 61.57 	 
C 	 -0.383632 	 -27.3105 	 61.829 	 
C 	 0.282331 	 -26.2649 	 61.0733 	 
C 	 -0.567868 	 -25.4235 	 60.4455 	 
H 	 -0.0179788 	 -28.0989 	 62.4926 	 
C 	 1.78136 	 -25.9532 	 61.3018 	 
H 	 1.98167 	 -26.0907 	 62.3154 	 
H 	 1.96937 	 -24.8675 	 61.069 	 
C 	 2.73878 	 -26.7047 	 60.4152 	 
H 	 2.73208 	 -27.7999 	 60.5091 	 
H 	 3.6997 	 -26.3329 	 60.7874 	 
C 	 2.64741 	 -26.3474 	 58.9104 	 
H 	 2.81031 	 -25.2815 	 58.7315 	 
H 	 1.64993 	 -26.5825 	 58.5057 	 
H 	 3.37236 	 -26.9741 	 58.3286 	 
H 	 0.224395 	 -21.8907 	 57.1637 	 
H 	 -2.54699 	 -28.0619 	 61.983 	 
