34

S 	 7.64233 	 27.813 	 70.6958 	 
C 	 7.04471 	 26.5537 	 69.6907 	 
C 	 7.05695 	 26.9086 	 68.4156 	 
C 	 7.42524 	 28.2583 	 68.2373 	 
C 	 7.84551 	 28.8919 	 69.3299 	 
H 	 7.26492 	 28.7783 	 67.3614 	 
C 	 6.63047 	 25.9498 	 67.2434 	 
H 	 5.69859 	 25.5301 	 67.4217 	 
H 	 7.26558 	 25.115 	 67.2472 	 
C 	 6.58614 	 26.5368 	 65.8671 	 
H 	 5.78334 	 27.26 	 65.8259 	 
H 	 7.55157 	 27.0528 	 65.6976 	 
C 	 6.40382 	 25.547 	 64.7866 	 
H 	 7.28326 	 24.8897 	 64.6486 	 
H 	 5.49856 	 24.8988 	 64.9257 	 
H 	 6.20889 	 26.1915 	 63.9319 	 
S 	 10.0783 	 30.4744 	 69.2694 	 
C 	 9.99749 	 32.1457 	 69.5193 	 
C 	 8.72505 	 32.5929 	 69.7785 	 
C 	 7.73962 	 31.5206 	 69.7533 	 
C 	 8.3175 	 30.2838 	 69.4357 	 
H 	 8.50709 	 33.6316 	 69.9299 	 
C 	 6.27961 	 31.7812 	 70.1476 	 
H 	 6.10546 	 32.4628 	 71.0125 	 
H 	 5.97679 	 30.7901 	 70.4662 	 
C 	 5.3918 	 32.3203 	 69.0087 	 
H 	 5.42862 	 31.7619 	 68.125 	 
H 	 5.63887 	 33.3395 	 68.666 	 
C 	 3.87968 	 32.2715 	 69.3247 	 
H 	 3.70022 	 31.3163 	 69.8733 	 
H 	 3.29707 	 32.1795 	 68.4307 	 
H 	 3.48804 	 33.1927 	 69.8647 	 
H 	 6.67542 	 25.5915 	 70.1083 	 
H 	 10.7772 	 32.9125 	 69.5182 	 
