34

S 	 46.9446 	 5.41337 	 87.4599 	 
C 	 47.5435 	 5.88499 	 89.0206 	 
C 	 46.9557 	 7.04354 	 89.4005 	 
C 	 45.9176 	 7.50201 	 88.5139 	 
C 	 45.8399 	 6.74188 	 87.3504 	 
H 	 45.3104 	 8.34639 	 88.6034 	 
C 	 47.2579 	 7.67779 	 90.7614 	 
H 	 47.2365 	 6.83486 	 91.5484 	 
H 	 46.4758 	 8.39391 	 91.138 	 
C 	 48.6612 	 8.3769 	 90.8889 	 
H 	 48.762 	 8.74176 	 91.8832 	 
H 	 49.5021 	 7.72992 	 90.6838 	 
C 	 48.8382 	 9.59404 	 90.0269 	 
H 	 48.1484 	 10.3098 	 90.1996 	 
H 	 49.7893 	 10.002 	 89.9959 	 
H 	 48.5846 	 9.29382 	 88.9757 	 
S 	 45.4364 	 6.04975 	 84.705 	 
C 	 44.1429 	 6.83055 	 83.8336 	 
C 	 43.373 	 7.58139 	 84.6977 	 
C 	 43.7197 	 7.41932 	 86.0736 	 
C 	 44.9378 	 6.8057 	 86.2604 	 
H 	 42.5211 	 8.21312 	 84.3944 	 
C 	 42.8483 	 8.0215 	 87.1269 	 
H 	 42.8796 	 9.06841 	 86.9924 	 
H 	 43.2219 	 7.77206 	 88.0897 	 
C 	 41.3571 	 7.67992 	 86.995 	 
H 	 40.9999 	 8.19224 	 86.1144 	 
H 	 40.848 	 8.24647 	 87.7997 	 
C 	 41.1407 	 6.19482 	 87.0078 	 
H 	 41.7124 	 5.7281 	 87.8284 	 
H 	 41.2219 	 5.84567 	 86.0301 	 
H 	 40.1139 	 5.83922 	 87.1903 	 
H 	 48.3703 	 5.48796 	 89.4929 	 
H 	 44.1035 	 6.88569 	 82.7524 	 
