34

S 	 -2.28504 	 -24.4851 	 86.5359 	 
C 	 -1.09319 	 -24.7032 	 85.281 	 
C 	 -0.306514 	 -23.4937 	 85.193 	 
C 	 -0.852637 	 -22.4658 	 85.9838 	 
C 	 -2.07695 	 -22.7753 	 86.5977 	 
H 	 -0.481996 	 -21.4737 	 86.187 	 
C 	 0.97227 	 -23.3343 	 84.3731 	 
H 	 0.780728 	 -22.5067 	 83.6667 	 
H 	 1.20412 	 -24.2291 	 83.7919 	 
C 	 2.10983 	 -22.8105 	 85.2939 	 
H 	 2.95173 	 -22.586 	 84.5877 	 
H 	 1.92057 	 -21.8713 	 85.8182 	 
C 	 2.61328 	 -23.8379 	 86.2424 	 
H 	 1.747 	 -24.2522 	 86.7876 	 
H 	 3.17635 	 -24.6415 	 85.7727 	 
H 	 3.33216 	 -23.417 	 86.984 	 
S 	 -2.96815 	 -22.7426 	 89.1981 	 
C 	 -3.57518 	 -21.2808 	 89.7523 	 
C 	 -3.3818 	 -20.2052 	 88.872 	 
C 	 -2.92964 	 -20.6337 	 87.598 	 
C 	 -2.73141 	 -22.0052 	 87.5854 	 
H 	 -3.66269 	 -19.2309 	 89.0911 	 
C 	 -2.62459 	 -19.6488 	 86.4324 	 
H 	 -2.63993 	 -20.2542 	 85.571 	 
H 	 -1.63348 	 -19.3154 	 86.5863 	 
C 	 -3.48908 	 -18.3702 	 86.2111 	 
H 	 -3.27077 	 -17.7311 	 87.0889 	 
H 	 -4.52984 	 -18.7027 	 86.3575 	 
C 	 -3.22822 	 -17.5874 	 84.9113 	 
H 	 -4.07115 	 -16.9388 	 84.628 	 
H 	 -3.31444 	 -18.3334 	 84.1309 	 
H 	 -2.28479 	 -17.0611 	 84.7727 	 
H 	 -0.938729 	 -25.639 	 84.8167 	 
H 	 -4.30381 	 -21.2136 	 90.516 	 
