34

S 	 -44.6614 	 17.8553 	 75.1163 	 
C 	 -42.9524 	 18.0031 	 75.5199 	 
C 	 -42.2741 	 16.7964 	 75.4873 	 
C 	 -43.1779 	 15.7514 	 75.1639 	 
C 	 -44.5045 	 16.1062 	 74.9609 	 
H 	 -42.8663 	 14.7796 	 74.9702 	 
C 	 -40.7779 	 16.5926 	 75.7114 	 
H 	 -40.4801 	 17.5722 	 75.9553 	 
H 	 -40.2733 	 16.3959 	 74.7996 	 
C 	 -40.2866 	 15.5616 	 76.7974 	 
H 	 -40.667 	 15.9145 	 77.765 	 
H 	 -40.6753 	 14.6137 	 76.5622 	 
C 	 -38.7551 	 15.2465 	 76.8106 	 
H 	 -38.3488 	 14.5261 	 77.5502 	 
H 	 -38.5865 	 14.8337 	 75.7814 	 
H 	 -38.1014 	 16.1493 	 76.8704 	 
S 	 -45.8507 	 13.6603 	 75.3675 	 
C 	 -47.2719 	 13.3581 	 74.4782 	 
C 	 -47.6897 	 14.4081 	 73.7329 	 
C 	 -46.7811 	 15.4982 	 73.7743 	 
C 	 -45.6507 	 15.2558 	 74.502 	 
H 	 -48.6221 	 14.3605 	 73.1687 	 
C 	 -47.0477 	 16.6523 	 72.8589 	 
H 	 -47.0296 	 17.615 	 73.3554 	 
H 	 -48.0719 	 16.6528 	 72.4696 	 
C 	 -45.977 	 16.6912 	 71.7493 	 
H 	 -45.7732 	 15.6502 	 71.3119 	 
H 	 -44.9783 	 16.8405 	 72.2362 	 
C 	 -46.2025 	 17.746 	 70.702 	 
H 	 -47.2112 	 17.7068 	 70.4623 	 
H 	 -45.5773 	 17.7108 	 69.7717 	 
H 	 -46.0829 	 18.7833 	 71.1022 	 
H 	 -42.3933 	 18.8749 	 75.4707 	 
H 	 -47.8248 	 12.424 	 74.5691 	 
