34

S 	 -18.7385 	 56.8479 	 64.538 	 
C 	 -17.8313 	 55.9291 	 63.3891 	 
C 	 -17.9738 	 56.2552 	 62.114 	 
C 	 -18.7962 	 57.4587 	 62.0489 	 
C 	 -19.3135 	 57.8496 	 63.2568 	 
H 	 -19.1064 	 58.0089 	 61.2096 	 
C 	 -17.2952 	 55.7032 	 60.909 	 
H 	 -17.99 	 55.0923 	 60.4303 	 
H 	 -16.5175 	 55.007 	 61.2743 	 
C 	 -16.7675 	 56.6683 	 59.8699 	 
H 	 -17.6096 	 57.2798 	 59.451 	 
H 	 -15.9837 	 57.3117 	 60.3034 	 
C 	 -16.2035 	 55.9598 	 58.6411 	 
H 	 -15.8408 	 56.7727 	 57.9752 	 
H 	 -15.3809 	 55.3041 	 58.8099 	 
H 	 -16.9356 	 55.3551 	 58.1277 	 
S 	 -21.8556 	 58.8288 	 62.9999 	 
C 	 -22.1795 	 60.4991 	 63.5014 	 
C 	 -20.9925 	 61.1744 	 63.6692 	 
C 	 -19.8338 	 60.281 	 63.6857 	 
C 	 -20.1769 	 58.9923 	 63.372 	 
H 	 -20.9305 	 62.2582 	 63.8684 	 
C 	 -18.5123 	 60.8899 	 64.0807 	 
H 	 -18.4828 	 61.8977 	 63.9085 	 
H 	 -17.6497 	 60.484 	 63.4741 	 
C 	 -18.2441 	 60.7029 	 65.6203 	 
H 	 -18.3496 	 59.6669 	 65.8729 	 
H 	 -19.0492 	 61.2598 	 66.1356 	 
C 	 -16.8179 	 61.3133 	 66.0707 	 
H 	 -16.6991 	 61.3266 	 67.16 	 
H 	 -16.7933 	 62.366 	 65.6921 	 
H 	 -16.0026 	 60.8594 	 65.62 	 
H 	 -17.3976 	 54.954 	 63.6138 	 
H 	 -23.1654 	 60.8206 	 63.7809 	 
