34

S 	 -0.389397 	 2.1514 	 83.32 	 
C 	 -0.472347 	 0.44827 	 82.9362 	 
C 	 0.783766 	 0.0163177 	 82.5584 	 
C 	 1.81429 	 0.906401 	 82.862 	 
C 	 1.38173 	 2.03547 	 83.4478 	 
H 	 2.86689 	 0.836927 	 82.5239 	 
C 	 1.07387 	 -1.31063 	 81.9431 	 
H 	 0.109873 	 -1.69534 	 81.6166 	 
H 	 1.27885 	 -1.94223 	 82.7797 	 
C 	 2.29765 	 -1.5309 	 80.932 	 
H 	 2.1674 	 -0.752971 	 80.1304 	 
H 	 3.1769 	 -1.17282 	 81.4655 	 
C 	 2.52664 	 -2.97698 	 80.4461 	 
H 	 2.72061 	 -3.64255 	 81.3101 	 
H 	 1.58541 	 -3.33371 	 80.1065 	 
H 	 3.268 	 -3.1881 	 79.6114 	 
S 	 1.94934 	 4.60859 	 82.7495 	 
C 	 2.98064 	 5.52369 	 83.8336 	 
C 	 3.59399 	 4.72736 	 84.7892 	 
C 	 3.04487 	 3.41187 	 84.8377 	 
C 	 2.12459 	 3.24572 	 83.8049 	 
H 	 4.39688 	 5.14873 	 85.4525 	 
C 	 3.74896 	 2.37128 	 85.7361 	 
H 	 4.83951 	 2.50232 	 85.8085 	 
H 	 3.41545 	 1.32881 	 85.3922 	 
C 	 3.24204 	 2.37076 	 87.2159 	 
H 	 3.56562 	 3.32415 	 87.6811 	 
H 	 3.66477 	 1.50962 	 87.7218 	 
C 	 1.7109 	 2.10667 	 87.3072 	 
H 	 1.18735 	 2.84429 	 86.7304 	 
H 	 1.25451 	 2.09575 	 88.3476 	 
H 	 1.40575 	 1.16285 	 86.7424 	 
H 	 -1.32814 	 -0.169603 	 82.7922 	 
H 	 3.43947 	 6.46417 	 83.5338 	 
