34

S 	 7.51462 	 -26.3966 	 83.9895 	 
C 	 8.62514 	 -26.7111 	 85.3436 	 
C 	 9.67394 	 -25.7882 	 85.3496 	 
C 	 9.50008 	 -24.7927 	 84.3474 	 
C 	 8.35643 	 -24.9465 	 83.616 	 
H 	 10.1188 	 -23.9445 	 84.0917 	 
C 	 10.8191 	 -25.7683 	 86.4072 	 
H 	 11.756 	 -25.3771 	 86.0214 	 
H 	 11.0889 	 -26.7388 	 86.7504 	 
C 	 10.5874 	 -24.8473 	 87.6309 	 
H 	 10.3165 	 -23.8312 	 87.2429 	 
H 	 9.69021 	 -25.1439 	 88.2366 	 
C 	 11.7252 	 -24.9084 	 88.5804 	 
H 	 12.8027 	 -24.795 	 88.2903 	 
H 	 11.7092 	 -24.133 	 89.3665 	 
H 	 11.6929 	 -25.8437 	 89.1609 	 
S 	 8.31044 	 -24.3566 	 80.8485 	 
C 	 7.51582 	 -22.872 	 80.4181 	 
C 	 6.9392 	 -22.2348 	 81.5525 	 
C 	 7.12138 	 -22.9455 	 82.7258 	 
C 	 7.84969 	 -24.1083 	 82.555 	 
H 	 6.4701 	 -21.2713 	 81.4663 	 
C 	 6.72273 	 -22.2902 	 84.0462 	 
H 	 6.48771 	 -21.2451 	 83.9944 	 
H 	 7.5366 	 -22.38 	 84.6974 	 
C 	 5.76236 	 -23.048 	 84.9862 	 
H 	 5.38272 	 -22.4657 	 85.7879 	 
H 	 6.37722 	 -23.8511 	 85.4291 	 
C 	 4.64153 	 -23.8078 	 84.3221 	 
H 	 4.73357 	 -24.7789 	 83.8768 	 
H 	 4.17506 	 -23.2167 	 83.5251 	 
H 	 3.94435 	 -23.84 	 85.0942 	 
H 	 8.67205 	 -27.6308 	 85.9304 	 
H 	 7.56577 	 -22.4047 	 79.4601 	 
