34

S 	 13.6146 	 22.6617 	 40.3678 	 
C 	 15.3523 	 22.991 	 40.0365 	 
C 	 15.9265 	 21.7552 	 39.7385 	 
C 	 15.0905 	 20.6252 	 39.7511 	 
C 	 13.7327 	 20.9428 	 39.9736 	 
H 	 15.4038 	 19.6313 	 39.6161 	 
C 	 17.3943 	 21.6214 	 39.4154 	 
H 	 17.7669 	 20.6698 	 39.8912 	 
H 	 18.0103 	 22.3649 	 39.979 	 
C 	 17.706 	 21.5865 	 37.9193 	 
H 	 16.938 	 21.0836 	 37.3063 	 
H 	 17.6761 	 22.6546 	 37.5925 	 
C 	 19.066 	 20.981 	 37.5922 	 
H 	 19.2692 	 21.2329 	 36.4806 	 
H 	 19.8687 	 21.4234 	 38.1878 	 
H 	 19.0683 	 19.8939 	 37.754 	 
S 	 11.6226 	 19.8194 	 38.7072 	 
C 	 10.5647 	 18.6998 	 39.5533 	 
C 	 11.0113 	 18.3961 	 40.8325 	 
C 	 12.1698 	 19.1704 	 41.1231 	 
C 	 12.6227 	 20.044 	 40.1079 	 
H 	 10.4619 	 17.7138 	 41.458 	 
C 	 12.9568 	 18.8924 	 42.4211 	 
H 	 14.008 	 19.0825 	 42.2781 	 
H 	 13.0181 	 17.8505 	 42.6392 	 
C 	 12.5326 	 19.6617 	 43.668 	 
H 	 11.4254 	 19.5412 	 43.659 	 
H 	 12.6618 	 20.7422 	 43.5129 	 
C 	 13.2208 	 19.2443 	 44.966 	 
H 	 12.7382 	 19.645 	 45.8684 	 
H 	 14.1827 	 19.7423 	 45.0239 	 
H 	 13.2774 	 18.1592 	 44.986 	 
H 	 15.7804 	 23.9356 	 40.3147 	 
H 	 9.59657 	 18.2645 	 39.2568 	 
