34

S 	 -34.5502 	 49.0482 	 94.8156 	 
C 	 -32.8386 	 49.0949 	 95.1453 	 
C 	 -32.4798 	 50.2533 	 95.8425 	 
C 	 -33.5902 	 51.105 	 96.1525 	 
C 	 -34.8072 	 50.5602 	 95.6848 	 
H 	 -33.499 	 52.0628 	 96.6301 	 
C 	 -31.0229 	 50.6941 	 96.1886 	 
H 	 -31.014 	 51.7533 	 96.0027 	 
H 	 -30.3619 	 50.1381 	 95.5121 	 
C 	 -30.6537 	 50.2171 	 97.5807 	 
H 	 -30.9648 	 49.1654 	 97.7066 	 
H 	 -29.5846 	 50.4389 	 97.8463 	 
C 	 -31.3435 	 51.0269 	 98.695 	 
H 	 -31.1073 	 52.0689 	 98.6918 	 
H 	 -32.3891 	 51.0128 	 98.4315 	 
H 	 -31.1193 	 50.4949 	 99.6168 	 
S 	 -36.9897 	 51.4727 	 94.3196 	 
C 	 -38.3058 	 52.2756 	 95.1556 	 
C 	 -38.0069 	 52.4355 	 96.5446 	 
C 	 -36.7205 	 51.7976 	 96.8564 	 
C 	 -36.1546 	 51.0849 	 95.7903 	 
H 	 -38.625 	 53.103 	 97.127 	 
C 	 -36.1151 	 51.864 	 98.3008 	 
H 	 -35.2324 	 52.3884 	 98.3205 	 
H 	 -35.7571 	 50.8465 	 98.5587 	 
C 	 -37.099 	 52.4025 	 99.3884 	 
H 	 -38.0408 	 51.9369 	 99.3278 	 
H 	 -37.3336 	 53.4511 	 99.2297 	 
C 	 -36.529 	 52.1677 	 100.798 	 
H 	 -37.1004 	 52.7136 	 101.517 	 
H 	 -35.5048 	 52.447 	 100.955 	 
H 	 -36.5694 	 51.1562 	 101.146 	 
H 	 -32.2647 	 48.195 	 94.8437 	 
H 	 -39.2613 	 52.682 	 94.8131 	 
