34

S 	 -53.2357 	 46.313 	 109.156 	 
C 	 -52.6506 	 47.8761 	 109.856 	 
C 	 -53.7049 	 48.8047 	 109.661 	 
C 	 -54.962 	 48.1715 	 109.19 	 
C 	 -54.8597 	 46.8248 	 108.858 	 
H 	 -55.9393 	 48.5695 	 109.087 	 
C 	 -53.7045 	 50.2603 	 110.05 	 
H 	 -52.7511 	 50.6228 	 109.69 	 
H 	 -53.6299 	 50.3356 	 111.116 	 
C 	 -54.8395 	 51.0614 	 109.49 	 
H 	 -55.044 	 50.7824 	 108.496 	 
H 	 -55.8824 	 50.9063 	 109.926 	 
C 	 -54.4825 	 52.5585 	 109.477 	 
H 	 -54.2155 	 53.1168 	 110.453 	 
H 	 -53.5729 	 52.7178 	 108.839 	 
H 	 -55.3451 	 53.0909 	 108.969 	 
S 	 -56.1532 	 45.5283 	 106.87 	 
C 	 -57.6964 	 44.7956 	 107.219 	 
C 	 -57.9095 	 44.7796 	 108.602 	 
C 	 -56.92 	 45.4676 	 109.337 	 
C 	 -55.9422 	 45.9121 	 108.511 	 
H 	 -58.7248 	 44.2608 	 108.989 	 
C 	 -57.0139 	 45.6487 	 110.865 	 
H 	 -58.0742 	 45.4684 	 111.178 	 
H 	 -56.7405 	 46.6285 	 110.969 	 
C 	 -56.1885 	 44.7049 	 111.723 	 
H 	 -55.173 	 44.7008 	 111.333 	 
H 	 -56.6235 	 43.6896 	 111.672 	 
C 	 -56.2205 	 45.0632 	 113.188 	 
H 	 -57.3332 	 45.018 	 113.429 	 
H 	 -55.8706 	 45.9861 	 113.442 	 
H 	 -55.6414 	 44.222 	 113.775 	 
H 	 -51.6759 	 47.9944 	 110.34 	 
H 	 -58.4304 	 44.4121 	 106.533 	 
