34

S 	 -1.26372 	 30.0312 	 39.9053 	 
C 	 -1.17291 	 28.6977 	 38.7829 	 
C 	 -0.625847 	 27.6376 	 39.4145 	 
C 	 -0.431044 	 27.8136 	 40.8324 	 
C 	 -0.731697 	 29.0413 	 41.2602 	 
H 	 0.0900558 	 27.2074 	 41.5521 	 
C 	 -0.23352 	 26.2801 	 38.7232 	 
H 	 -0.853307 	 26.1448 	 37.786 	 
H 	 -0.657796 	 25.7286 	 39.6197 	 
C 	 1.19589 	 25.8717 	 38.5188 	 
H 	 1.67392 	 26.4518 	 37.7105 	 
H 	 1.74915 	 26.0949 	 39.4027 	 
C 	 1.30223 	 24.405 	 38.2088 	 
H 	 0.791007 	 24.1624 	 37.2944 	 
H 	 2.30991 	 23.9251 	 38.1782 	 
H 	 0.722917 	 23.8049 	 38.9212 	 
S 	 -1.09928 	 28.744 	 43.9877 	 
C 	 0.0230821 	 29.5451 	 45.0045 	 
C 	 0.766602 	 30.5422 	 44.3714 	 
C 	 0.504696 	 30.5427 	 42.995 	 
C 	 -0.339622 	 29.5607 	 42.5396 	 
H 	 1.4613 	 31.124 	 44.9332 	 
C 	 1.4204 	 31.4222 	 42.1253 	 
H 	 1.55595 	 30.9849 	 41.169 	 
H 	 2.41815 	 31.3217 	 42.5608 	 
C 	 0.96368 	 32.8837 	 41.9921 	 
H 	 0.538864 	 33.3738 	 42.9743 	 
H 	 0.0816993 	 32.8131 	 41.2355 	 
C 	 2.032 	 33.8193 	 41.4703 	 
H 	 2.80656 	 34.0729 	 42.2166 	 
H 	 1.58144 	 34.7539 	 41.2126 	 
H 	 2.56417 	 33.3868 	 40.6447 	 
H 	 -1.30849 	 28.7022 	 37.7413 	 
H 	 0.0106757 	 29.5415 	 46.1048 	 
