34

S 	 -67.0306 	 36.6013 	 142.733 	 
C 	 -68.0541 	 36.4628 	 141.314 	 
C 	 -67.605 	 35.4597 	 140.433 	 
C 	 -66.2954 	 34.943 	 140.803 	 
C 	 -65.762 	 35.5478 	 141.989 	 
H 	 -65.8309 	 34.1453 	 140.165 	 
C 	 -68.2329 	 35.2692 	 139.079 	 
H 	 -69.2113 	 35.0789 	 139.324 	 
H 	 -67.6911 	 34.385 	 138.694 	 
C 	 -68.0252 	 36.3859 	 138.034 	 
H 	 -66.9441 	 36.6962 	 137.988 	 
H 	 -68.3267 	 35.9505 	 137.066 	 
C 	 -68.8008 	 37.6666 	 138.3 	 
H 	 -68.4045 	 38.1243 	 139.226 	 
H 	 -68.8024 	 38.5344 	 137.623 	 
H 	 -69.8786 	 37.3692 	 138.488 	 
S 	 -64.6618 	 34.7085 	 144.263 	 
C 	 -62.9458 	 34.5044 	 144.325 	 
C 	 -62.2815 	 34.6005 	 143.128 	 
C 	 -63.2162 	 35.0294 	 142.128 	 
C 	 -64.4889 	 35.3026 	 142.633 	 
H 	 -61.2846 	 34.3477 	 143.064 	 
C 	 -62.8286 	 35.0884 	 140.641 	 
H 	 -63.6773 	 35.557 	 140.077 	 
H 	 -62.5808 	 34.1006 	 140.304 	 
C 	 -61.6198 	 36.0116 	 140.444 	 
H 	 -61.2021 	 35.93 	 139.388 	 
H 	 -60.6187 	 35.6611 	 140.955 	 
C 	 -61.8201 	 37.4842 	 140.849 	 
H 	 -61.0905 	 38.2342 	 140.489 	 
H 	 -61.8416 	 37.5615 	 141.983 	 
H 	 -62.8345 	 37.7435 	 140.48 	 
H 	 -68.911 	 37.0743 	 141.014 	 
H 	 -62.3262 	 34.2057 	 145.167 	 
