34

S 	 49.1532 	 23.4809 	 43.8827 	 
C 	 48.2714 	 24.1941 	 42.6182 	 
C 	 47.4476 	 25.2164 	 43.0328 	 
C 	 47.4811 	 25.3336 	 44.4612 	 
C 	 48.2584 	 24.4162 	 45.1111 	 
H 	 46.9644 	 26.0409 	 45.0177 	 
C 	 46.6071 	 25.996 	 42.0952 	 
H 	 47.1601 	 26.1589 	 41.2067 	 
H 	 46.6353 	 26.9476 	 42.6259 	 
C 	 45.1573 	 25.4471 	 41.9729 	 
H 	 44.6639 	 25.7199 	 42.885 	 
H 	 44.7329 	 26.0237 	 41.1613 	 
C 	 44.9873 	 23.9559 	 41.7901 	 
H 	 43.9986 	 23.5288 	 42.1182 	 
H 	 45.0589 	 23.756 	 40.7345 	 
H 	 45.6059 	 23.3107 	 42.4856 	 
S 	 49.9213 	 25.0143 	 47.1627 	 
C 	 49.2501 	 25.0885 	 48.7838 	 
C 	 48.008 	 24.4515 	 48.7866 	 
C 	 47.5401 	 24.0426 	 47.509 	 
C 	 48.4337 	 24.3241 	 46.5446 	 
H 	 47.2913 	 24.4408 	 49.6553 	 
C 	 46.1067 	 23.5568 	 47.2745 	 
H 	 45.8118 	 23.8881 	 46.302 	 
H 	 45.4139 	 24.1129 	 47.8413 	 
C 	 45.8439 	 21.9866 	 47.4238 	 
H 	 46.5341 	 21.3291 	 46.8908 	 
H 	 44.8883 	 21.791 	 46.9577 	 
C 	 45.8732 	 21.5449 	 48.8865 	 
H 	 46.9007 	 21.6791 	 49.3459 	 
H 	 45.6112 	 20.506 	 48.9857 	 
H 	 45.1357 	 22.1143 	 49.4011 	 
H 	 48.5631 	 23.972 	 41.647 	 
H 	 49.7198 	 25.6309 	 49.6319 	 
