34

S 	 -120.459 	 47.3021 	 132.991 	 
C 	 -120.996 	 48.1613 	 134.491 	 
C 	 -120.145 	 47.9548 	 135.547 	 
C 	 -119.112 	 47.0503 	 135.231 	 
C 	 -119.101 	 46.7167 	 133.911 	 
H 	 -118.38 	 46.6419 	 135.831 	 
C 	 -120.237 	 48.582 	 136.953 	 
H 	 -120.196 	 47.8549 	 137.747 	 
H 	 -121.26 	 48.991 	 137.079 	 
C 	 -119.242 	 49.7791 	 137.201 	 
H 	 -119.575 	 50.3188 	 138.147 	 
H 	 -118.197 	 49.5602 	 137.198 	 
C 	 -119.351 	 50.8497 	 136.093 	 
H 	 -118.797 	 51.7668 	 136.337 	 
H 	 -118.885 	 50.5399 	 135.124 	 
H 	 -120.421 	 51.1919 	 135.948 	 
S 	 -119.003 	 44.5656 	 132.144 	 
C 	 -117.468 	 44.054 	 131.583 	 
C 	 -116.513 	 44.4693 	 132.419 	 
C 	 -116.868 	 45.4972 	 133.317 	 
C 	 -118.221 	 45.7628 	 133.237 	 
H 	 -115.504 	 44.0612 	 132.287 	 
C 	 -115.817 	 46.2814 	 134.123 	 
H 	 -114.947 	 45.7307 	 134.412 	 
H 	 -116.251 	 46.6252 	 135.016 	 
C 	 -115.359 	 47.6246 	 133.352 	 
H 	 -114.753 	 47.319 	 132.53 	 
H 	 -114.705 	 48.1817 	 133.972 	 
C 	 -116.503 	 48.6498 	 132.988 	 
H 	 -116.797 	 49.2346 	 133.855 	 
H 	 -117.382 	 48.1342 	 132.514 	 
H 	 -116.145 	 49.4296 	 132.232 	 
H 	 -121.815 	 48.822 	 134.462 	 
H 	 -117.371 	 43.3093 	 130.869 	 
