34

S 	 -94.4184 	 54.6451 	 123.582 	 
C 	 -92.8878 	 54.0342 	 123.007 	 
C 	 -92.1087 	 53.5381 	 124.026 	 
C 	 -92.8114 	 53.6316 	 125.268 	 
C 	 -94.0252 	 54.2684 	 125.19 	 
H 	 -92.5444 	 53.2354 	 126.242 	 
C 	 -90.7725 	 52.8293 	 123.895 	 
H 	 -90.2734 	 52.7674 	 124.875 	 
H 	 -90.2339 	 53.5972 	 123.248 	 
C 	 -90.8243 	 51.4563 	 123.37 	 
H 	 -91.3833 	 51.3822 	 122.384 	 
H 	 -89.7392 	 51.2904 	 123.167 	 
C 	 -91.2806 	 50.2982 	 124.287 	 
H 	 -90.9118 	 50.4197 	 125.34 	 
H 	 -92.4002 	 50.3238 	 124.377 	 
H 	 -90.8778 	 49.2972 	 123.939 	 
S 	 -95.6701 	 53.1138 	 127.032 	 
C 	 -96.6461 	 54.1476 	 128.083 	 
C 	 -96.3182 	 55.4748 	 127.866 	 
C 	 -95.2971 	 55.7382 	 126.875 	 
C 	 -94.9376 	 54.5408 	 126.27 	 
H 	 -96.9077 	 56.1431 	 128.552 	 
C 	 -94.8772 	 57.0969 	 126.545 	 
H 	 -93.7788 	 57.1111 	 126.401 	 
H 	 -94.9081 	 57.5401 	 127.525 	 
C 	 -95.6382 	 57.9109 	 125.446 	 
H 	 -96.7109 	 57.9325 	 125.601 	 
H 	 -95.4859 	 57.3285 	 124.479 	 
C 	 -95.0735 	 59.294 	 125.245 	 
H 	 -95.5653 	 59.8615 	 124.463 	 
H 	 -94.0177 	 59.162 	 124.876 	 
H 	 -95.087 	 59.9184 	 126.142 	 
H 	 -92.5614 	 53.8643 	 121.935 	 
H 	 -97.308 	 53.7754 	 128.836 	 
