34

S 	 -102.169 	 45.1931 	 123.974 	 
C 	 -103.501 	 44.4327 	 124.761 	 
C 	 -104.631 	 44.4871 	 123.949 	 
C 	 -104.336 	 44.8758 	 122.599 	 
C 	 -102.996 	 45.1859 	 122.396 	 
H 	 -105.21 	 44.9519 	 121.886 	 
C 	 -106.015 	 44.3324 	 124.473 	 
H 	 -106.046 	 43.8494 	 125.425 	 
H 	 -106.57 	 43.5712 	 123.941 	 
C 	 -106.728 	 45.6707 	 124.688 	 
H 	 -106.073 	 46.3114 	 125.152 	 
H 	 -106.874 	 46.2168 	 123.737 	 
C 	 -108.035 	 45.4982 	 125.526 	 
H 	 -108.639 	 46.38 	 125.653 	 
H 	 -108.654 	 44.7888 	 124.994 	 
H 	 -107.79 	 45.0622 	 126.513 	 
S 	 -101.412 	 47.1111 	 121.241 	 
C 	 -100.967 	 47.0303 	 119.542 	 
C 	 -101.611 	 45.978 	 118.991 	 
C 	 -102.37 	 45.0844 	 119.88 	 
C 	 -102.326 	 45.6172 	 121.152 	 
H 	 -101.546 	 45.8613 	 117.94 	 
C 	 -102.983 	 43.7836 	 119.495 	 
H 	 -103.608 	 43.3713 	 120.308 	 
H 	 -102.139 	 43.1205 	 119.261 	 
C 	 -103.853 	 43.7859 	 118.255 	 
H 	 -104.289 	 42.7824 	 118.213 	 
H 	 -103.226 	 43.9871 	 117.351 	 
C 	 -104.899 	 44.9123 	 118.355 	 
H 	 -105.501 	 44.774 	 119.177 	 
H 	 -105.586 	 45.118 	 117.486 	 
H 	 -104.37 	 45.8498 	 118.639 	 
H 	 -103.442 	 43.9161 	 125.673 	 
H 	 -100.45 	 47.799 	 119.057 	 
