34

S 	 8.5437 	 -21.6559 	 83.4981 	 
C 	 7.9308 	 -20.0136 	 82.9772 	 
C 	 8.42945 	 -19.6571 	 81.764 	 
C 	 9.47933 	 -20.5279 	 81.3692 	 
C 	 9.61249 	 -21.7037 	 82.1291 	 
H 	 10.1622 	 -20.2933 	 80.5874 	 
C 	 8.19665 	 -18.3541 	 81.0001 	 
H 	 7.78413 	 -18.722 	 80.0155 	 
H 	 9.08537 	 -17.8042 	 80.8286 	 
C 	 6.99889 	 -17.421 	 81.4129 	 
H 	 6.13401 	 -17.9757 	 81.3321 	 
H 	 7.12604 	 -17.1975 	 82.449 	 
C 	 6.84343 	 -16.1793 	 80.5275 	 
H 	 5.95724 	 -15.6352 	 80.7481 	 
H 	 7.78756 	 -15.536 	 80.5773 	 
H 	 6.70103 	 -16.4746 	 79.4789 	 
S 	 9.89795 	 -24.2868 	 81.2809 	 
C 	 11.3783 	 -25.1039 	 81.6746 	 
C 	 12.3168 	 -24.3201 	 82.2739 	 
C 	 11.8414 	 -22.9806 	 82.4559 	 
C 	 10.5299 	 -22.8087 	 82.0222 	 
H 	 13.2799 	 -24.7544 	 82.5144 	 
C 	 12.6903 	 -21.9037 	 83.1306 	 
H 	 12.3581 	 -20.9819 	 82.7682 	 
H 	 13.7539 	 -21.8881 	 82.6938 	 
C 	 12.8295 	 -22.1398 	 84.6632 	 
H 	 13.5919 	 -22.9218 	 84.7778 	 
H 	 11.8658 	 -22.5779 	 84.9392 	 
C 	 13.2002 	 -20.8883 	 85.5327 	 
H 	 12.3536 	 -20.2606 	 85.7256 	 
H 	 13.8965 	 -20.207 	 85.0455 	 
H 	 13.597 	 -21.3066 	 86.4654 	 
H 	 7.36054 	 -19.3218 	 83.538 	 
H 	 11.7549 	 -26.0438 	 81.1974 	 
