34

S 	 -42.4956 	 20.3198 	 71.0207 	 
C 	 -40.956 	 20.7021 	 70.3562 	 
C 	 -40.3456 	 19.5018 	 69.9556 	 
C 	 -40.9454 	 18.2655 	 70.3116 	 
C 	 -42.0342 	 18.5838 	 71.1069 	 
H 	 -40.7066 	 17.2214 	 70.1206 	 
C 	 -38.9929 	 19.5474 	 69.2281 	 
H 	 -38.7444 	 18.5718 	 68.8261 	 
H 	 -38.2135 	 19.8039 	 69.972 	 
C 	 -39.1303 	 20.4574 	 67.986 	 
H 	 -39.2804 	 21.475 	 68.33 	 
H 	 -38.1457 	 20.6223 	 67.5812 	 
C 	 -40.0127 	 19.9659 	 66.9038 	 
H 	 -39.4798 	 19.3067 	 66.2113 	 
H 	 -40.8689 	 19.4018 	 67.3249 	 
H 	 -40.3572 	 20.8628 	 66.4219 	 
S 	 -44.3873 	 17.2957 	 70.5288 	 
C 	 -44.8345 	 15.9887 	 71.5039 	 
C 	 -44.0737 	 15.9159 	 72.6526 	 
C 	 -43.0381 	 16.8442 	 72.699 	 
C 	 -42.975 	 17.5337 	 71.5099 	 
H 	 -44.2481 	 15.1083 	 73.399 	 
C 	 -41.8878 	 16.924 	 73.7501 	 
H 	 -40.9565 	 16.8408 	 73.2393 	 
H 	 -42.0125 	 16.0287 	 74.3279 	 
C 	 -41.8362 	 18.2808 	 74.5187 	 
H 	 -41.5782 	 19.0915 	 73.8033 	 
H 	 -40.9565 	 18.1793 	 75.1597 	 
C 	 -43.1801 	 18.6296 	 75.3654 	 
H 	 -44.0508 	 18.5957 	 74.6394 	 
H 	 -43.1191 	 19.5497 	 75.8797 	 
H 	 -43.3832 	 17.8706 	 76.1403 	 
H 	 -40.5062 	 21.6607 	 70.1583 	 
H 	 -45.6024 	 15.2728 	 71.3773 	 
