34

S 	 -80.4744 	 42.0704 	 137.703 	 
C 	 -80.1327 	 41.0421 	 139.121 	 
C 	 -80.0699 	 41.8416 	 140.244 	 
C 	 -80.2196 	 43.2131 	 139.967 	 
C 	 -80.2512 	 43.5101 	 138.601 	 
H 	 -80.2313 	 43.9973 	 140.747 	 
C 	 -80.1345 	 41.323 	 141.647 	 
H 	 -80.0234 	 40.2419 	 141.637 	 
H 	 -81.113 	 41.4897 	 142.091 	 
C 	 -79.1522 	 41.9333 	 142.625 	 
H 	 -79.2145 	 43.0184 	 142.511 	 
H 	 -79.3175 	 41.6871 	 143.659 	 
C 	 -77.622 	 41.678 	 142.274 	 
H 	 -77.2616 	 41.965 	 141.295 	 
H 	 -76.9846 	 42.1458 	 143.107 	 
H 	 -77.634 	 40.5689 	 142.125 	 
S 	 -81.536 	 45.4919 	 137.107 	 
C 	 -80.6198 	 46.9701 	 136.809 	 
C 	 -79.4147 	 46.9228 	 137.42 	 
C 	 -79.1337 	 45.7404 	 138.113 	 
C 	 -80.2017 	 44.8523 	 138.088 	 
H 	 -78.772 	 47.7359 	 137.286 	 
C 	 -77.8454 	 45.3894 	 138.813 	 
H 	 -78.0383 	 44.5407 	 139.438 	 
H 	 -77.5178 	 46.3205 	 139.275 	 
C 	 -76.7932 	 45.0075 	 137.788 	 
H 	 -77.3603 	 44.4726 	 137.02 	 
H 	 -76.1752 	 44.2421 	 138.312 	 
C 	 -75.9233 	 46.1098 	 137.076 	 
H 	 -75.3869 	 46.6794 	 137.848 	 
H 	 -76.6269 	 46.7671 	 136.452 	 
H 	 -75.1462 	 45.6116 	 136.499 	 
H 	 -80.3215 	 39.9419 	 139.154 	 
H 	 -81.0887 	 47.7438 	 136.223 	 
