34

S 	 -1.07284 	 -17.3585 	 89.4836 	 
C 	 -2.27023 	 -18.0603 	 90.5377 	 
C 	 -3.19988 	 -18.702 	 89.7937 	 
C 	 -2.90909 	 -18.601 	 88.3939 	 
C 	 -1.78029 	 -17.8693 	 88.0392 	 
H 	 -3.42227 	 -19.0258 	 87.5865 	 
C 	 -4.4072 	 -19.4771 	 90.2927 	 
H 	 -4.11006 	 -19.8878 	 91.2323 	 
H 	 -4.63716 	 -20.2878 	 89.5734 	 
C 	 -5.54653 	 -18.5098 	 90.442 	 
H 	 -5.31533 	 -17.603 	 90.8921 	 
H 	 -5.73581 	 -18.1385 	 89.4138 	 
C 	 -6.85902 	 -19.0839 	 90.9548 	 
H 	 -6.71309 	 -19.3136 	 92.0387 	 
H 	 -7.59717 	 -18.3083 	 90.7875 	 
H 	 -7.17835 	 -19.9292 	 90.3707 	 
S 	 -0.346792 	 -16.0434 	 86.6792 	 
C 	 -0.265333 	 -16.1293 	 84.8776 	 
C 	 -1.11843 	 -17.081 	 84.3761 	 
C 	 -1.6189 	 -17.9274 	 85.4124 	 
C 	 -1.30262 	 -17.4867 	 86.7214 	 
H 	 -1.24645 	 -17.1729 	 83.3242 	 
C 	 -2.58941 	 -19.0389 	 85.1034 	 
H 	 -2.39652 	 -19.7227 	 85.8633 	 
H 	 -2.27627 	 -19.5886 	 84.1709 	 
C 	 -4.09318 	 -18.7173 	 84.9506 	 
H 	 -4.53619 	 -18.2944 	 85.8428 	 
H 	 -4.65634 	 -19.5989 	 84.6928 	 
C 	 -4.29543 	 -17.7137 	 83.8398 	 
H 	 -5.22124 	 -17.4121 	 83.999 	 
H 	 -4.10095 	 -17.884 	 82.7586 	 
H 	 -3.57123 	 -16.8972 	 84.0629 	 
H 	 -2.1939 	 -18.0225 	 91.6368 	 
H 	 0.388136 	 -15.4814 	 84.2862 	 
