34

S 	 67.6295 	 28.9752 	 70.0716 	 
C 	 68.0753 	 27.7057 	 68.8795 	 
C 	 68.6704 	 26.6558 	 69.5381 	 
C 	 68.9008 	 26.8908 	 70.9412 	 
C 	 68.4467 	 28.1457 	 71.3513 	 
H 	 69.4772 	 26.3514 	 71.6686 	 
C 	 69.0758 	 25.3103 	 68.8749 	 
H 	 68.2187 	 25.0057 	 68.1929 	 
H 	 69.0961 	 24.6341 	 69.6471 	 
C 	 70.415 	 25.3285 	 68.2928 	 
H 	 70.4921 	 26.22 	 67.6911 	 
H 	 71.1187 	 25.6072 	 69.0757 	 
C 	 70.7778 	 23.9726 	 67.5524 	 
H 	 70.9756 	 23.1679 	 68.2523 	 
H 	 70.0554 	 23.593 	 66.8658 	 
H 	 71.7456 	 24.0126 	 66.9615 	 
S 	 68.8699 	 30.4435 	 72.9673 	 
C 	 68.5332 	 30.3077 	 74.6335 	 
C 	 68.1588 	 29.0379 	 75.0003 	 
C 	 68.1986 	 28.1137 	 73.9406 	 
C 	 68.4841 	 28.7385 	 72.7225 	 
H 	 67.8559 	 28.9692 	 76.0601 	 
C 	 67.9021 	 26.6269 	 74.1795 	 
H 	 67.9663 	 25.93 	 73.3526 	 
H 	 66.8073 	 26.6443 	 74.3866 	 
C 	 68.771 	 25.9541 	 75.2508 	 
H 	 68.3824 	 24.9443 	 75.4747 	 
H 	 68.6722 	 26.5577 	 76.1353 	 
C 	 70.2584 	 25.9257 	 74.7694 	 
H 	 70.6568 	 24.8473 	 74.8379 	 
H 	 70.8209 	 26.5606 	 75.48 	 
H 	 70.5028 	 26.3455 	 73.7425 	 
H 	 67.6332 	 27.5873 	 67.905 	 
H 	 68.8273 	 31.0525 	 75.3442 	 
