34

S 	 26.5141 	 31.5343 	 56.345 	 
C 	 24.8414 	 31.0814 	 56.3266 	 
C 	 24.3433 	 31.0265 	 55.0134 	 
C 	 25.2854 	 31.6037 	 54.0604 	 
C 	 26.4434 	 32.0316 	 54.6112 	 
H 	 25.2197 	 31.6278 	 52.9517 	 
C 	 23.0276 	 30.4243 	 54.6187 	 
H 	 22.5425 	 29.8191 	 55.4213 	 
H 	 23.35 	 29.7254 	 53.8403 	 
C 	 22.0535 	 31.4173 	 53.9715 	 
H 	 21.9183 	 32.3793 	 54.5954 	 
H 	 22.4207 	 31.8106 	 53.0442 	 
C 	 20.6798 	 30.7397 	 53.8204 	 
H 	 20.1216 	 30.3291 	 54.6673 	 
H 	 19.9548 	 31.2852 	 53.1651 	 
H 	 20.8708 	 29.8333 	 53.1514 	 
S 	 28.2072 	 34.05 	 54.7321 	 
C 	 29.4255 	 34.1608 	 53.5529 	 
C 	 29.1266 	 33.4791 	 52.3951 	 
C 	 28.0583 	 32.6056 	 52.6101 	 
C 	 27.5386 	 32.7109 	 53.9045 	 
H 	 29.7532 	 33.5766 	 51.5056 	 
C 	 27.7471 	 31.5895 	 51.5225 	 
H 	 26.9494 	 30.8753 	 51.8603 	 
H 	 28.624 	 30.9144 	 51.3932 	 
C 	 27.2636 	 32.0953 	 50.1943 	 
H 	 27.0696 	 31.2377 	 49.5197 	 
H 	 28.0266 	 32.7698 	 49.8037 	 
C 	 25.9831 	 32.9329 	 50.2117 	 
H 	 25.9476 	 33.8721 	 50.8134 	 
H 	 25.1961 	 32.2018 	 50.5761 	 
H 	 25.7998 	 33.3201 	 49.1964 	 
H 	 24.2599 	 30.6805 	 57.2105 	 
H 	 30.0781 	 34.9792 	 53.5607 	 
