34

S 	 22.2788 	 0.997156 	 81.9404 	 
C 	 23.4663 	 1.71508 	 80.893 	 
C 	 22.9562 	 2.66452 	 80.0167 	 
C 	 21.6089 	 2.88788 	 80.2612 	 
C 	 21.0069 	 1.94516 	 81.0937 	 
H 	 21.0124 	 3.61456 	 79.8581 	 
C 	 23.6184 	 3.44023 	 78.926 	 
H 	 22.7968 	 4.03742 	 78.4322 	 
H 	 24.0695 	 2.74324 	 78.1823 	 
C 	 24.6825 	 4.49626 	 79.3589 	 
H 	 24.271 	 5.20087 	 80.0909 	 
H 	 25.5033 	 3.95207 	 79.8541 	 
C 	 25.2151 	 5.23941 	 78.0992 	 
H 	 24.4781 	 5.81539 	 77.5079 	 
H 	 26.0826 	 5.81659 	 78.2789 	 
H 	 25.5891 	 4.52331 	 77.3289 	 
S 	 19.6026 	 2.1512 	 83.3245 	 
C 	 17.8491 	 2.30677 	 83.3033 	 
C 	 17.372 	 2.24175 	 82.0338 	 
C 	 18.3952 	 2.18101 	 81.0154 	 
C 	 19.6517 	 1.98855 	 81.5915 	 
H 	 16.3102 	 2.3314 	 81.8701 	 
C 	 18.0152 	 2.24924 	 79.5191 	 
H 	 18.9031 	 1.99412 	 78.8881 	 
H 	 17.7519 	 3.27531 	 79.307 	 
C 	 16.8263 	 1.23732 	 79.1606 	 
H 	 15.8407 	 1.56651 	 79.4618 	 
H 	 17.0475 	 0.309399 	 79.6045 	 
C 	 16.6796 	 1.02157 	 77.6936 	 
H 	 16.1024 	 0.143608 	 77.6008 	 
H 	 17.6302 	 0.879728 	 77.1472 	 
H 	 16.1819 	 1.82404 	 77.2346 	 
H 	 24.4437 	 1.48711 	 81.0305 	 
H 	 17.2359 	 2.41079 	 84.1813 	 
