34

S 	 -13.4281 	 37.9962 	 55.2605 	 
C 	 -11.6874 	 38.474 	 55.4573 	 
C 	 -11.0565 	 37.9823 	 54.3373 	 
C 	 -11.8987 	 37.5258 	 53.2962 	 
C 	 -13.2435 	 37.5604 	 53.5826 	 
H 	 -11.4545 	 37.1799 	 52.3867 	 
C 	 -9.58875 	 37.8266 	 54.0734 	 
H 	 -9.40027 	 37.1725 	 53.2811 	 
H 	 -9.21294 	 37.3974 	 55.0097 	 
C 	 -8.86901 	 39.1694 	 53.857 	 
H 	 -7.89508 	 38.948 	 53.3764 	 
H 	 -9.49186 	 39.8442 	 53.3411 	 
C 	 -8.44537 	 39.7991 	 55.2001 	 
H 	 -9.3297 	 39.7872 	 55.9404 	 
H 	 -7.5458 	 39.4666 	 55.6814 	 
H 	 -8.25118 	 40.8421 	 55.0742 	 
S 	 -15.5385 	 38.2207 	 52.2898 	 
C 	 -16.4815 	 36.9292 	 51.6427 	 
C 	 -15.8538 	 35.7054 	 51.8512 	 
C 	 -14.61 	 35.8021 	 52.462 	 
C 	 -14.3104 	 37.1031 	 52.7834 	 
H 	 -16.3891 	 34.8966 	 51.3547 	 
C 	 -13.6479 	 34.6095 	 52.6323 	 
H 	 -14.2512 	 33.7687 	 52.9386 	 
H 	 -12.9767 	 34.8736 	 53.4197 	 
C 	 -12.8755 	 34.1702 	 51.3642 	 
H 	 -12.2873 	 34.9894 	 50.9354 	 
H 	 -13.4544 	 34.0465 	 50.4561 	 
C 	 -12.0988 	 32.8536 	 51.5964 	 
H 	 -11.3763 	 32.7711 	 50.736 	 
H 	 -12.6733 	 31.9812 	 51.688 	 
H 	 -11.5064 	 32.9011 	 52.4958 	 
H 	 -11.1637 	 38.6888 	 56.3498 	 
H 	 -17.5243 	 36.9507 	 51.5259 	 
