34

S 	 32.3592 	 18.9849 	 69.5688 	 
C 	 31.177 	 17.6835 	 69.872 	 
C 	 30.8939 	 17.6411 	 71.2259 	 
C 	 31.622 	 18.5457 	 72.0598 	 
C 	 32.4744 	 19.3277 	 71.2629 	 
H 	 31.4235 	 18.823 	 73.1231 	 
C 	 29.8391 	 16.7119 	 71.8253 	 
H 	 29.0652 	 16.5404 	 71.0439 	 
H 	 29.3019 	 17.3198 	 72.5425 	 
C 	 30.3388 	 15.4954 	 72.6229 	 
H 	 30.8165 	 14.8052 	 71.993 	 
H 	 31.0664 	 15.8432 	 73.2701 	 
C 	 29.124 	 14.7721 	 73.2779 	 
H 	 29.6015 	 13.9327 	 73.8331 	 
H 	 28.4515 	 15.488 	 73.8253 	 
H 	 28.3536 	 14.3619 	 72.6279 	 
S 	 32.7857 	 21.9424 	 72.1647 	 
C 	 34.3273 	 22.5105 	 72.7138 	 
C 	 35.1176 	 21.3965 	 72.9058 	 
C 	 34.5592 	 20.1372 	 72.4753 	 
C 	 33.301 	 20.2987 	 71.9141 	 
H 	 36.073 	 21.5089 	 73.4237 	 
C 	 35.4238 	 18.8655 	 72.5762 	 
H 	 34.779 	 18.0962 	 72.469 	 
H 	 35.8563 	 18.7792 	 73.5542 	 
C 	 36.62 	 18.7689 	 71.6003 	 
H 	 36.2153 	 19.1053 	 70.6191 	 
H 	 37.0402 	 17.7585 	 71.5391 	 
C 	 37.7815 	 19.606 	 72.0784 	 
H 	 37.9778 	 19.3516 	 73.1598 	 
H 	 37.5596 	 20.6836 	 72.1786 	 
H 	 38.7352 	 19.477 	 71.5397 	 
H 	 30.6251 	 17.1106 	 69.1909 	 
H 	 34.5694 	 23.5058 	 73.0017 	 
