34

S 	 -106.254 	 41.8696 	 132.592 	 
C 	 -106.008 	 42.9201 	 133.985 	 
C 	 -106.354 	 44.2559 	 133.612 	 
C 	 -106.588 	 44.3659 	 132.21 	 
C 	 -106.746 	 43.1187 	 131.586 	 
H 	 -106.649 	 45.2103 	 131.624 	 
C 	 -106.41 	 45.4182 	 134.584 	 
H 	 -107.438 	 45.4389 	 134.849 	 
H 	 -106.163 	 46.3432 	 133.984 	 
C 	 -105.448 	 45.3798 	 135.857 	 
H 	 -105.681 	 46.0542 	 136.593 	 
H 	 -105.612 	 44.4078 	 136.284 	 
C 	 -103.976 	 45.5822 	 135.52 	 
H 	 -103.773 	 46.6368 	 135.402 	 
H 	 -103.573 	 45.0995 	 136.358 	 
H 	 -103.675 	 44.9482 	 134.704 	 
S 	 -108.294 	 43.4989 	 129.398 	 
C 	 -107.687 	 43.0623 	 127.821 	 
C 	 -106.436 	 42.4958 	 127.888 	 
C 	 -105.931 	 42.3855 	 129.23 	 
C 	 -106.885 	 42.9254 	 130.145 	 
H 	 -106.008 	 42.0627 	 126.993 	 
C 	 -104.618 	 41.7105 	 129.569 	 
H 	 -104.334 	 41.118 	 128.678 	 
H 	 -104.755 	 41.0245 	 130.419 	 
C 	 -103.6 	 42.7786 	 130.198 	 
H 	 -102.728 	 42.2606 	 130.657 	 
H 	 -104.148 	 43.2915 	 130.972 	 
C 	 -103.029 	 43.8638 	 129.37 	 
H 	 -102.381 	 43.3964 	 128.61 	 
H 	 -102.528 	 44.5931 	 129.996 	 
H 	 -103.818 	 44.3672 	 128.854 	 
H 	 -105.752 	 42.6417 	 134.993 	 
H 	 -108.216 	 43.137 	 126.863 	 
