34

S 	 35.7505 	 21.717 	 51.6767 	 
C 	 34.8808 	 21.7714 	 53.0701 	 
C 	 33.6273 	 21.1075 	 53.0351 	 
C 	 33.6784 	 20.1272 	 51.9331 	 
C 	 34.7448 	 20.3131 	 51.1015 	 
H 	 32.9229 	 19.3546 	 51.5938 	 
C 	 32.6399 	 21.0652 	 54.1299 	 
H 	 31.6714 	 21.0986 	 53.6049 	 
H 	 32.8113 	 21.9717 	 54.7062 	 
C 	 32.6537 	 19.8146 	 55.0941 	 
H 	 32.6877 	 18.963 	 54.3748 	 
H 	 33.4552 	 19.6589 	 55.7656 	 
C 	 31.4499 	 19.7931 	 56.0884 	 
H 	 31.546 	 20.7154 	 56.6778 	 
H 	 30.6063 	 19.8888 	 55.4372 	 
H 	 31.435 	 18.8926 	 56.7849 	 
S 	 33.7656 	 18.9406 	 49.0152 	 
C 	 34.9203 	 18.1463 	 47.9871 	 
C 	 36.2463 	 18.2863 	 48.3503 	 
C 	 36.3527 	 19.1648 	 49.4968 	 
C 	 35.1403 	 19.5574 	 49.9634 	 
H 	 37.0302 	 17.697 	 47.8149 	 
C 	 37.739 	 19.39 	 50.0905 	 
H 	 38.3353 	 18.4832 	 50.0909 	 
H 	 37.5825 	 19.5493 	 51.1423 	 
C 	 38.618 	 20.4806 	 49.5207 	 
H 	 38.0252 	 21.4178 	 49.2995 	 
H 	 39.1883 	 20.2171 	 48.6469 	 
C 	 39.7373 	 20.8587 	 50.6649 	 
H 	 40.4551 	 21.5883 	 50.2592 	 
H 	 40.3961 	 20.0757 	 50.9963 	 
H 	 39.3161 	 21.4031 	 51.5455 	 
H 	 34.9937 	 22.4956 	 53.8202 	 
H 	 34.5596 	 17.471 	 47.1978 	 
