34

S 	 -4.55215 	 27.7482 	 54.9942 	 
C 	 -4.89952 	 26.118 	 55.0502 	 
C 	 -5.27798 	 25.5502 	 53.833 	 
C 	 -5.26625 	 26.5643 	 52.8301 	 
C 	 -4.94094 	 27.8267 	 53.2921 	 
H 	 -5.50765 	 26.3739 	 51.7943 	 
C 	 -5.51878 	 24.0864 	 53.6072 	 
H 	 -6.43736 	 24.0735 	 52.9101 	 
H 	 -5.68451 	 23.4809 	 54.5626 	 
C 	 -4.39381 	 23.3769 	 52.8057 	 
H 	 -4.7628 	 22.4031 	 52.4835 	 
H 	 -4.1911 	 23.8813 	 51.9637 	 
C 	 -2.95514 	 23.2092 	 53.4307 	 
H 	 -2.54273 	 24.175 	 53.7463 	 
H 	 -2.89409 	 22.6829 	 54.4292 	 
H 	 -2.24714 	 22.7181 	 52.6901 	 
S 	 -3.50691 	 30.0397 	 52.4572 	 
C 	 -3.95779 	 30.8266 	 50.9861 	 
C 	 -4.97375 	 30.1385 	 50.4003 	 
C 	 -5.43845 	 29.071 	 51.1164 	 
C 	 -4.84308 	 28.9104 	 52.3562 	 
H 	 -5.28132 	 30.5749 	 49.4578 	 
C 	 -6.6249 	 28.2859 	 50.5533 	 
H 	 -6.30353 	 27.3265 	 50.1261 	 
H 	 -6.90467 	 28.7794 	 49.6387 	 
C 	 -7.99947 	 28.0776 	 51.2615 	 
H 	 -7.85082 	 27.5852 	 52.2032 	 
H 	 -8.67027 	 27.4298 	 50.5928 	 
C 	 -8.57476 	 29.4613 	 51.6163 	 
H 	 -9.60277 	 29.3128 	 52.0723 	 
H 	 -8.82494 	 30.0517 	 50.7639 	 
H 	 -7.88276 	 29.9705 	 52.2935 	 
H 	 -4.6947 	 25.5833 	 55.8801 	 
H 	 -3.3101 	 31.5908 	 50.4957 	 
