34

S 	 -46.8147 	 -0.886401 	 98.803 	 
C 	 -47.3552 	 -2.21365 	 97.81 	 
C 	 -47.5091 	 -1.84043 	 96.5327 	 
C 	 -47.2004 	 -0.493125 	 96.3667 	 
C 	 -46.78 	 0.202269 	 97.4319 	 
H 	 -47.2221 	 0.0655042 	 95.4715 	 
C 	 -47.7746 	 -2.78072 	 95.371 	 
H 	 -48.5662 	 -3.3893 	 95.6984 	 
H 	 -46.945 	 -3.50121 	 95.2691 	 
C 	 -48.1699 	 -2.23743 	 94.0177 	 
H 	 -48.7177 	 -2.99368 	 93.4796 	 
H 	 -49.0011 	 -1.47089 	 94.047 	 
C 	 -47.0573 	 -1.85718 	 93.0196 	 
H 	 -46.7006 	 -0.859917 	 93.2233 	 
H 	 -46.2318 	 -2.48648 	 93.0031 	 
H 	 -47.4578 	 -1.92555 	 92.0275 	 
S 	 -45.41 	 2.18838 	 98.7775 	 
C 	 -45.1944 	 3.72797 	 98.0222 	 
C 	 -46.0183 	 3.90431 	 96.9218 	 
C 	 -46.6315 	 2.68806 	 96.52 	 
C 	 -46.3917 	 1.60665 	 97.4023 	 
H 	 -46.1328 	 4.82109 	 96.4055 	 
C 	 -47.5273 	 2.57085 	 95.2808 	 
H 	 -48.106 	 3.43831 	 95.3029 	 
H 	 -48.2914 	 1.88758 	 95.4441 	 
C 	 -46.8283 	 2.27679 	 93.9748 	 
H 	 -46.3263 	 1.31438 	 93.8834 	 
H 	 -46.06 	 3.09712 	 93.835 	 
C 	 -47.883 	 2.31835 	 92.8493 	 
H 	 -48.4966 	 3.24932 	 92.8643 	 
H 	 -48.6045 	 1.45165 	 92.8898 	 
H 	 -47.3974 	 2.28273 	 91.803 	 
H 	 -47.5268 	 -3.19583 	 98.2444 	 
H 	 -44.5575 	 4.49315 	 98.4074 	 
