34

S 	 -63.5511 	 45.767 	 121.188 	 
C 	 -64.8001 	 44.7124 	 121.771 	 
C 	 -66.0103 	 45.3693 	 121.883 	 
C 	 -65.9216 	 46.697 	 121.517 	 
C 	 -64.7095 	 47.0412 	 120.89 	 
H 	 -66.7045 	 47.4143 	 121.521 	 
C 	 -67.3015 	 44.881 	 122.422 	 
H 	 -67.4022 	 43.8547 	 122.243 	 
H 	 -68.1137 	 45.3101 	 121.855 	 
C 	 -67.5203 	 45.2705 	 123.927 	 
H 	 -66.5983 	 45.0316 	 124.435 	 
H 	 -67.5884 	 46.3173 	 124.023 	 
C 	 -68.7767 	 44.6387 	 124.591 	 
H 	 -68.7694 	 44.9032 	 125.507 	 
H 	 -69.677 	 45.0699 	 124.182 	 
H 	 -68.9913 	 43.5371 	 124.517 	 
S 	 -65.2249 	 48.4963 	 118.659 	 
C 	 -64.5216 	 50.0769 	 118.51 	 
C 	 -63.8413 	 50.4798 	 119.685 	 
C 	 -63.7791 	 49.4527 	 120.691 	 
C 	 -64.383 	 48.2924 	 120.234 	 
H 	 -63.4705 	 51.4081 	 119.888 	 
C 	 -63.1103 	 49.5256 	 122.015 	 
H 	 -62.3525 	 50.3409 	 122.089 	 
H 	 -62.4811 	 48.6354 	 122.137 	 
C 	 -64.007 	 49.689 	 123.306 	 
H 	 -64.6536 	 48.7987 	 123.313 	 
H 	 -64.5688 	 50.6583 	 123.3 	 
C 	 -63.2267 	 49.774 	 124.653 	 
H 	 -62.9215 	 48.7815 	 124.975 	 
H 	 -63.7336 	 50.249 	 125.507 	 
H 	 -62.2955 	 50.2987 	 124.546 	 
H 	 -64.5217 	 43.6978 	 122.04 	 
H 	 -64.7828 	 50.8367 	 117.676 	 
