34

S 	 5.89961 	 -11.8432 	 70.9918 	 
C 	 4.47745 	 -11.0462 	 70.3815 	 
C 	 4.57179 	 -10.8949 	 69.0181 	 
C 	 5.91319 	 -11.1234 	 68.511 	 
C 	 6.67586 	 -11.7771 	 69.471 	 
H 	 6.29915 	 -11.0169 	 67.4988 	 
C 	 3.41557 	 -10.3302 	 68.1728 	 
H 	 2.70287 	 -9.90336 	 68.8343 	 
H 	 2.84572 	 -11.1468 	 67.7044 	 
C 	 3.74736 	 -9.26489 	 67.1671 	 
H 	 4.4293 	 -9.66767 	 66.4642 	 
H 	 2.79016 	 -9.05483 	 66.6867 	 
C 	 4.30357 	 -8.02819 	 67.8171 	 
H 	 5.05443 	 -8.19269 	 68.6059 	 
H 	 4.79205 	 -7.38805 	 67.1023 	 
H 	 3.55655 	 -7.43761 	 68.3412 	 
S 	 9.14053 	 -11.3029 	 68.4443 	 
C 	 10.352 	 -12.6397 	 68.2659 	 
C 	 9.81919 	 -13.8479 	 68.8637 	 
C 	 8.47318 	 -13.6775 	 69.2828 	 
C 	 7.98829 	 -12.3595 	 69.227 	 
H 	 10.3117 	 -14.8055 	 68.6675 	 
C 	 7.64106 	 -14.8455 	 69.7366 	 
H 	 7.49987 	 -14.6027 	 70.7958 	 
H 	 8.24937 	 -15.7303 	 69.8211 	 
C 	 6.32097 	 -15.2058 	 69.0069 	 
H 	 5.68642 	 -14.2717 	 68.8378 	 
H 	 5.69698 	 -15.8962 	 69.5636 	 
C 	 6.59227 	 -15.5399 	 67.5596 	 
H 	 7.15324 	 -14.6741 	 67.0933 	 
H 	 5.65164 	 -15.5947 	 66.9761 	 
H 	 7.2599 	 -16.3739 	 67.47 	 
H 	 3.57966 	 -10.8039 	 70.9217 	 
H 	 11.2267 	 -12.5939 	 67.7548 	 
