34

S 	 46.8713 	 10.816 	 86.8448 	 
C 	 46.9671 	 9.29716 	 87.691 	 
C 	 45.9681 	 9.17859 	 88.6602 	 
C 	 45.1354 	 10.3353 	 88.7105 	 
C 	 45.4636 	 11.275 	 87.8025 	 
H 	 44.4689 	 10.5037 	 89.4798 	 
C 	 45.7856 	 8.01648 	 89.6209 	 
H 	 46.0128 	 7.132 	 89.0205 	 
H 	 44.6988 	 7.88284 	 89.8436 	 
C 	 46.6149 	 8.02624 	 90.8873 	 
H 	 46.2718 	 7.23462 	 91.5015 	 
H 	 47.6374 	 7.7559 	 90.672 	 
C 	 46.5885 	 9.36113 	 91.6281 	 
H 	 45.6761 	 9.86568 	 91.4158 	 
H 	 46.7839 	 9.30301 	 92.676 	 
H 	 47.4051 	 9.94379 	 91.2218 	 
S 	 45.846 	 13.9392 	 87.0776 	 
C 	 44.5418 	 15.0558 	 87.09 	 
C 	 43.4137 	 14.4873 	 87.4361 	 
C 	 43.5635 	 13.1555 	 87.9355 	 
C 	 44.836 	 12.6105 	 87.6362 	 
H 	 42.5678 	 15.1813 	 87.6201 	 
C 	 42.3511 	 12.3566 	 88.517 	 
H 	 42.5037 	 11.2598 	 88.3953 	 
H 	 41.4954 	 12.6135 	 87.941 	 
C 	 42.1082 	 12.6642 	 89.9789 	 
H 	 42.1418 	 13.6965 	 90.0963 	 
H 	 42.9705 	 12.3395 	 90.5612 	 
C 	 40.8664 	 12.0083 	 90.5997 	 
H 	 40.02 	 12.4756 	 90.0814 	 
H 	 40.7882 	 12.3732 	 91.5799 	 
H 	 40.8438 	 10.8332 	 90.4875 	 
H 	 47.892 	 8.63769 	 87.7329 	 
H 	 44.6864 	 16.1018 	 87.1238 	 
