34

S 	 10.8207 	 24.1941 	 65.2129 	 
C 	 11.8107 	 22.9636 	 65.8346 	 
C 	 11.2386 	 22.318 	 66.8954 	 
C 	 9.82286 	 22.643 	 67.0333 	 
C 	 9.50129 	 23.7859 	 66.3229 	 
H 	 9.10338 	 22.1065 	 67.6185 	 
C 	 11.9379 	 21.2727 	 67.7142 	 
H 	 11.7603 	 21.5808 	 68.7554 	 
H 	 13.0396 	 21.2571 	 67.5824 	 
C 	 11.4892 	 19.8244 	 67.5624 	 
H 	 12.3335 	 19.1096 	 67.7662 	 
H 	 10.7379 	 19.6581 	 68.265 	 
C 	 10.9833 	 19.4197 	 66.1969 	 
H 	 10.6191 	 18.378 	 66.3713 	 
H 	 10.3015 	 20.1865 	 65.7575 	 
H 	 11.8468 	 19.4618 	 65.5532 	 
S 	 7.84763 	 25.8191 	 67.2138 	 
C 	 6.3319 	 26.1005 	 66.4096 	 
C 	 6.01911 	 25.0067 	 65.6022 	 
C 	 7.02138 	 24.0082 	 65.5226 	 
C 	 8.15074 	 24.3962 	 66.2343 	 
H 	 5.05518 	 25.0659 	 65.063 	 
C 	 6.97232 	 22.8832 	 64.5761 	 
H 	 7.86902 	 22.2336 	 64.7098 	 
H 	 6.97553 	 23.2883 	 63.5482 	 
C 	 5.76502 	 21.9641 	 64.7199 	 
H 	 4.91259 	 22.5042 	 64.3844 	 
H 	 5.66433 	 21.6701 	 65.7851 	 
C 	 5.81144 	 20.6773 	 63.8899 	 
H 	 6.82684 	 20.1849 	 64.0878 	 
H 	 5.86209 	 20.8137 	 62.8289 	 
H 	 4.93283 	 20.0609 	 64.0614 	 
H 	 12.7485 	 22.6901 	 65.3854 	 
H 	 5.71658 	 27.0575 	 66.397 	 
