34

S 	 -41.8764 	 24.9541 	 79.2899 	 
C 	 -42.4573 	 23.6099 	 80.1746 	 
C 	 -42.1363 	 22.3993 	 79.5581 	 
C 	 -41.108 	 22.508 	 78.5748 	 
C 	 -40.8546 	 23.8613 	 78.3191 	 
H 	 -40.5722 	 21.6514 	 78.1451 	 
C 	 -42.442 	 21.0336 	 80.097 	 
H 	 -41.5607 	 20.6368 	 80.662 	 
H 	 -42.4181 	 20.4083 	 79.2546 	 
C 	 -43.7288 	 20.8548 	 80.8399 	 
H 	 -43.7618 	 19.8591 	 81.2965 	 
H 	 -43.5949 	 21.425 	 81.7547 	 
C 	 -45.0453 	 21.2182 	 80.2363 	 
H 	 -45.1674 	 20.9057 	 79.1767 	 
H 	 -45.8873 	 20.7785 	 80.7175 	 
H 	 -45.239 	 22.2805 	 80.2758 	 
S 	 -39.8601 	 23.6758 	 75.6996 	 
C 	 -38.2405 	 24.3686 	 75.449 	 
C 	 -37.7836 	 25.1673 	 76.4802 	 
C 	 -38.6673 	 25.1197 	 77.5862 	 
C 	 -39.8292 	 24.3339 	 77.3994 	 
H 	 -36.8587 	 25.659 	 76.4222 	 
C 	 -38.2584 	 25.7998 	 78.9093 	 
H 	 -37.1664 	 25.8438 	 78.8625 	 
H 	 -38.5767 	 25.1683 	 79.6521 	 
C 	 -38.806 	 27.1854 	 79.1343 	 
H 	 -39.8876 	 27.2737 	 78.9043 	 
H 	 -38.3691 	 27.8542 	 78.4333 	 
C 	 -38.4932 	 27.8302 	 80.4621 	 
H 	 -38.7358 	 27.2748 	 81.3566 	 
H 	 -38.9558 	 28.7912 	 80.5467 	 
H 	 -37.369 	 27.8649 	 80.4848 	 
H 	 -43.12 	 23.7621 	 80.9909 	 
H 	 -37.7617 	 24.301 	 74.4668 	 
