34

S 	 -21.6564 	 2.23272 	 77.1349 	 
C 	 -21.1828 	 0.48499 	 77.0715 	 
C 	 -22.2747 	 -0.26558 	 76.6479 	 
C 	 -23.4632 	 0.519822 	 76.4231 	 
C 	 -23.2917 	 1.87275 	 76.782 	 
H 	 -24.4873 	 0.289853 	 76.1116 	 
C 	 -22.361 	 -1.77347 	 76.501 	 
H 	 -23.2218 	 -2.10573 	 77.0786 	 
H 	 -21.5235 	 -2.14568 	 77.1213 	 
C 	 -22.3179 	 -2.29992 	 75.0795 	 
H 	 -21.402 	 -1.9393 	 74.6072 	 
H 	 -22.2041 	 -3.39269 	 75.0611 	 
C 	 -23.5479 	 -2.07405 	 74.2752 	 
H 	 -23.5621 	 -2.58612 	 73.3178 	 
H 	 -24.3787 	 -2.48041 	 74.822 	 
H 	 -23.7951 	 -1.0281 	 74.2163 	 
S 	 -24.0173 	 4.42953 	 76.012 	 
C 	 -25.6979 	 4.94756 	 76.3186 	 
C 	 -26.3594 	 3.98267 	 77.0737 	 
C 	 -25.6132 	 2.82102 	 77.3538 	 
C 	 -24.3344 	 2.87308 	 76.8171 	 
H 	 -27.4108 	 4.06962 	 77.2555 	 
C 	 -26.2559 	 1.60609 	 78.0024 	 
H 	 -25.481 	 0.843074 	 78.3583 	 
H 	 -26.8677 	 1.13598 	 77.2722 	 
C 	 -27.1483 	 1.90792 	 79.2346 	 
H 	 -28.0106 	 2.48609 	 78.898 	 
H 	 -26.5531 	 2.4706 	 79.9649 	 
C 	 -27.7746 	 0.619057 	 79.7555 	 
H 	 -28.3533 	 0.962621 	 80.6277 	 
H 	 -26.8835 	 0.0873764 	 80.2092 	 
H 	 -28.3682 	 -0.0724396 	 79.0304 	 
H 	 -20.2924 	 -0.0221313 	 77.2988 	 
H 	 -26.161 	 5.78728 	 75.8465 	 
