34

S 	 -12.8012 	 38.8698 	 35.7852 	 
C 	 -14.52 	 38.8023 	 36.2082 	 
C 	 -15.2273 	 39.1226 	 35.0307 	 
C 	 -14.4144 	 39.6338 	 33.9448 	 
C 	 -13.0279 	 39.6119 	 34.2272 	 
H 	 -14.7723 	 39.8964 	 32.9928 	 
C 	 -16.7739 	 39.0762 	 34.9276 	 
H 	 -17.381 	 39.9927 	 34.7676 	 
H 	 -17.1344 	 38.537 	 35.812 	 
C 	 -17.1916 	 38.0777 	 33.7702 	 
H 	 -18.2449 	 38.0456 	 33.5523 	 
H 	 -16.7431 	 38.5635 	 32.8882 	 
C 	 -16.7867 	 36.5696 	 34.0189 	 
H 	 -17.1971 	 35.8317 	 33.2797 	 
H 	 -15.7608 	 36.2994 	 33.9989 	 
H 	 -17.2858 	 36.3273 	 34.9527 	 
S 	 -10.2677 	 39.4687 	 33.6819 	 
C 	 -9.49968 	 40.1752 	 32.3107 	 
C 	 -10.4934 	 40.8378 	 31.6124 	 
C 	 -11.8371 	 40.8348 	 32.2158 	 
C 	 -11.9183 	 40.0266 	 33.3456 	 
H 	 -10.2524 	 41.4194 	 30.7331 	 
C 	 -12.9647 	 41.4618 	 31.4443 	 
H 	 -12.454 	 42.3122 	 31.0131 	 
H 	 -13.5791 	 41.9222 	 32.1813 	 
C 	 -13.7174 	 40.5941 	 30.4597 	 
H 	 -14.5936 	 41.0182 	 29.9901 	 
H 	 -14.0875 	 39.6948 	 30.9388 	 
C 	 -12.8132 	 40.0654 	 29.3283 	 
H 	 -13.3767 	 39.8169 	 28.4335 	 
H 	 -12.2239 	 39.1762 	 29.6914 	 
H 	 -11.9862 	 40.7974 	 29.069 	 
H 	 -14.9266 	 38.4292 	 37.1462 	 
H 	 -8.45561 	 40.2666 	 31.9636 	 
