34

S 	 -106.706 	 40.5743 	 132.329 	 
C 	 -105.145 	 40.039 	 133.04 	 
C 	 -104.081 	 40.1724 	 132.183 	 
C 	 -104.585 	 40.5419 	 130.879 	 
C 	 -105.974 	 40.7452 	 130.716 	 
H 	 -103.989 	 40.7083 	 129.982 	 
C 	 -102.589 	 39.8292 	 132.41 	 
H 	 -102.42 	 38.8306 	 132.051 	 
H 	 -102.424 	 39.6474 	 133.505 	 
C 	 -101.652 	 41.0007 	 132.03 	 
H 	 -100.664 	 40.5547 	 132.275 	 
H 	 -101.641 	 41.2892 	 130.987 	 
C 	 -101.843 	 42.2364 	 132.938 	 
H 	 -100.908 	 42.774 	 132.962 	 
H 	 -102.742 	 42.8037 	 132.69 	 
H 	 -101.96 	 41.9501 	 133.99 	 
S 	 -108.356 	 41.8148 	 129.902 	 
C 	 -108.675 	 41.9649 	 128.186 	 
C 	 -107.614 	 41.5925 	 127.383 	 
C 	 -106.523 	 41.1165 	 128.146 	 
C 	 -106.754 	 41.0858 	 129.555 	 
H 	 -107.678 	 41.6963 	 126.336 	 
C 	 -105.278 	 40.5773 	 127.493 	 
H 	 -105.623 	 39.9488 	 126.8 	 
H 	 -104.822 	 39.9193 	 128.208 	 
C 	 -104.251 	 41.5957 	 126.926 	 
H 	 -103.305 	 41.1669 	 126.681 	 
H 	 -104.097 	 42.2784 	 127.78 	 
C 	 -104.698 	 42.4263 	 125.741 	 
H 	 -104.879 	 41.7849 	 124.921 	 
H 	 -103.81 	 42.9423 	 125.413 	 
H 	 -105.505 	 43.1148 	 125.869 	 
H 	 -105.056 	 39.8302 	 134.052 	 
H 	 -109.609 	 42.3206 	 127.715 	 
