34

S 	 -0.134337 	 -8.58284 	 86.4352 	 
C 	 1.10986 	 -9.43551 	 87.3796 	 
C 	 0.788127 	 -9.44553 	 88.7219 	 
C 	 -0.259988 	 -8.61605 	 89.0895 	 
C 	 -0.884502 	 -8.0308 	 87.9841 	 
H 	 -0.679786 	 -8.43406 	 90.1161 	 
C 	 1.60029 	 -10.1804 	 89.7757 	 
H 	 2.68143 	 -10.1461 	 89.3861 	 
H 	 1.26712 	 -11.1988 	 89.6529 	 
C 	 1.71651 	 -9.62357 	 91.1971 	 
H 	 2.68558 	 -9.76568 	 91.585 	 
H 	 1.52318 	 -8.5161 	 91.2567 	 
C 	 0.670806 	 -10.2405 	 92.1326 	 
H 	 -0.261869 	 -10.4598 	 91.6305 	 
H 	 1.06979 	 -11.1594 	 92.5635 	 
H 	 0.533734 	 -9.64955 	 93.022 	 
S 	 -3.57704 	 -8.17619 	 87.3855 	 
C 	 -4.65233 	 -6.95597 	 88.0445 	 
C 	 -3.93062 	 -5.95116 	 88.5967 	 
C 	 -2.56585 	 -6.12634 	 88.6488 	 
C 	 -2.19103 	 -7.32882 	 88.0438 	 
H 	 -4.42914 	 -5.10658 	 88.9931 	 
C 	 -1.66017 	 -5.18038 	 89.4324 	 
H 	 -2.03168 	 -4.12337 	 89.3433 	 
H 	 -0.579116 	 -5.23765 	 89.0716 	 
C 	 -1.79438 	 -5.5114 	 90.8997 	 
H 	 -1.75614 	 -6.55667 	 91.0662 	 
H 	 -2.7666 	 -5.26572 	 91.2072 	 
C 	 -0.680545 	 -4.81659 	 91.7021 	 
H 	 -0.632706 	 -3.73353 	 91.6609 	 
H 	 0.319287 	 -5.18068 	 91.4266 	 
H 	 -0.713512 	 -4.89944 	 92.7551 	 
H 	 1.93737 	 -10.0598 	 87.0282 	 
H 	 -5.71981 	 -7.02951 	 87.9393 	 
