34

S 	 40.4751 	 14.0734 	 84.4297 	 
C 	 39.7183 	 15.565 	 84.7165 	 
C 	 38.323 	 15.4575 	 84.8375 	 
C 	 37.9803 	 14.0642 	 84.9816 	 
C 	 39.0021 	 13.1805 	 84.8432 	 
H 	 37.007 	 13.5757 	 85.117 	 
C 	 37.3266 	 16.6114 	 85.0212 	 
H 	 36.3496 	 16.3348 	 84.7689 	 
H 	 37.5505 	 17.3805 	 84.3084 	 
C 	 37.2714 	 17.0424 	 86.5509 	 
H 	 38.2867 	 17.0996 	 86.9279 	 
H 	 36.9343 	 18.1146 	 86.5176 	 
C 	 36.3612 	 16.2259 	 87.4361 	 
H 	 36.4685 	 16.4925 	 88.4964 	 
H 	 35.3138 	 16.3921 	 87.2496 	 
H 	 36.5977 	 15.1721 	 87.3188 	 
S 	 39.2881 	 10.7846 	 83.5754 	 
C 	 39.3281 	 9.27777 	 84.4777 	 
C 	 39.0158 	 9.48917 	 85.786 	 
C 	 38.7696 	 10.8957 	 86.0558 	 
C 	 38.9832 	 11.7151 	 84.9924 	 
H 	 38.8632 	 8.69739 	 86.5204 	 
C 	 38.4504 	 11.4257 	 87.4778 	 
H 	 39.111 	 12.3607 	 87.4666 	 
H 	 38.8329 	 10.6632 	 88.1297 	 
C 	 36.9539 	 11.6425 	 87.7883 	 
H 	 36.4142 	 12.2792 	 87.0984 	 
H 	 36.8329 	 12.1479 	 88.8316 	 
C 	 36.2009 	 10.3414 	 87.7452 	 
H 	 36.4947 	 9.64952 	 88.5294 	 
H 	 36.3595 	 9.92426 	 86.7495 	 
H 	 35.1347 	 10.5101 	 87.9389 	 
H 	 39.9828 	 16.5435 	 84.5648 	 
H 	 39.4258 	 8.3079 	 84.0645 	 
