34

S 	 -26.0877 	 44.4821 	 58.7487 	 
C 	 -26.1325 	 46.2184 	 59.1489 	 
C 	 -25.0029 	 46.9143 	 58.9225 	 
C 	 -24.0525 	 45.9925 	 58.329 	 
C 	 -24.5337 	 44.7313 	 58.0081 	 
H 	 -22.9953 	 46.2492 	 58.1149 	 
C 	 -24.8402 	 48.3876 	 59.1432 	 
H 	 -25.2353 	 48.787 	 58.1971 	 
H 	 -23.7855 	 48.7527 	 59.1874 	 
C 	 -25.6443 	 48.9312 	 60.3116 	 
H 	 -25.3748 	 49.9711 	 60.3304 	 
H 	 -26.6842 	 48.934 	 60.0982 	 
C 	 -25.2858 	 48.2858 	 61.6376 	 
H 	 -24.2067 	 47.9863 	 61.8785 	 
H 	 -25.4845 	 49.0549 	 62.3686 	 
H 	 -25.9104 	 47.4498 	 61.8558 	 
S 	 -23.672 	 42.2521 	 58.6839 	 
C 	 -22.577 	 41.3545 	 57.6203 	 
C 	 -22.2146 	 42.0626 	 56.5227 	 
C 	 -22.9155 	 43.3122 	 56.4642 	 
C 	 -23.6909 	 43.556 	 57.6237 	 
H 	 -21.484 	 41.6526 	 55.8498 	 
C 	 -22.5571 	 44.2574 	 55.2772 	 
H 	 -21.8936 	 43.7094 	 54.58 	 
H 	 -21.9485 	 45.1118 	 55.6484 	 
C 	 -23.7611 	 44.6723 	 54.4675 	 
H 	 -23.3293 	 45.2881 	 53.6559 	 
H 	 -24.4787 	 45.2073 	 54.9436 	 
C 	 -24.4771 	 43.506 	 53.7701 	 
H 	 -25.313 	 43.6943 	 53.1487 	 
H 	 -24.7638 	 42.7731 	 54.6034 	 
H 	 -23.7062 	 42.9873 	 53.1401 	 
H 	 -27.0236 	 46.6262 	 59.6443 	 
H 	 -22.2125 	 40.3741 	 57.7829 	 
