34

S 	 -6.10029 	 38.1163 	 34.0942 	 
C 	 -7.68462 	 38.7076 	 33.6923 	 
C 	 -7.62435 	 40.1289 	 33.5506 	 
C 	 -6.31558 	 40.6266 	 33.7697 	 
C 	 -5.39735 	 39.7349 	 34.157 	 
H 	 -6.12394 	 41.7098 	 33.8528 	 
C 	 -8.88769 	 40.9479 	 33.2335 	 
H 	 -9.10708 	 41.4133 	 34.1642 	 
H 	 -9.82767 	 40.3637 	 33.1208 	 
C 	 -8.83601 	 41.9183 	 31.9798 	 
H 	 -7.83831 	 42.2825 	 31.7604 	 
H 	 -9.31355 	 41.4522 	 31.1193 	 
C 	 -9.56981 	 43.2978 	 32.2097 	 
H 	 -8.92161 	 44.0589 	 32.6438 	 
H 	 -10.0274 	 43.6823 	 31.258 	 
H 	 -10.2184 	 43.1174 	 32.9597 	 
S 	 -3.34364 	 39.1152 	 35.79 	 
C 	 -1.80416 	 39.9424 	 35.6842 	 
C 	 -1.84958 	 40.9591 	 34.7483 	 
C 	 -3.16305 	 41.0983 	 34.1651 	 
C 	 -4.01682 	 40.0111 	 34.4668 	 
H 	 -1.01002 	 41.6781 	 34.7213 	 
C 	 -3.41069 	 42.1186 	 33.1438 	 
H 	 -4.03395 	 41.7574 	 32.3049 	 
H 	 -2.39501 	 42.2935 	 32.6974 	 
C 	 -3.82202 	 43.5117 	 33.6262 	 
H 	 -3.29305 	 43.7218 	 34.5399 	 
H 	 -4.84562 	 43.4621 	 34.0003 	 
C 	 -3.66607 	 44.663 	 32.5324 	 
H 	 -2.67232 	 44.958 	 32.4504 	 
H 	 -4.3269 	 45.5048 	 32.8317 	 
H 	 -4.05524 	 44.3868 	 31.4985 	 
H 	 -8.49436 	 38.0871 	 33.7469 	 
H 	 -0.905012 	 39.8702 	 36.3308 	 
