34

S 	 39.1502 	 32.2452 	 53.5485 	 
C 	 38.4517 	 32.8435 	 52.0521 	 
C 	 37.4982 	 33.8253 	 52.3015 	 
C 	 37.3871 	 34.1186 	 53.7525 	 
C 	 38.1803 	 33.255 	 54.5552 	 
H 	 36.7332 	 34.9437 	 54.158 	 
C 	 36.5412 	 34.5177 	 51.2461 	 
H 	 36.9753 	 34.2624 	 50.2858 	 
H 	 36.6521 	 35.5962 	 51.3702 	 
C 	 35.0343 	 34.1166 	 51.2717 	 
H 	 34.5853 	 34.5496 	 52.227 	 
H 	 34.5817 	 34.4883 	 50.3375 	 
C 	 34.9238 	 32.6027 	 51.3807 	 
H 	 35.6778 	 32.1744 	 50.7255 	 
H 	 35.1036 	 32.3842 	 52.3703 	 
H 	 33.8884 	 32.2204 	 51.035 	 
S 	 39.714 	 33.5978 	 56.8676 	 
C 	 39.044 	 33.1642 	 58.4208 	 
C 	 37.6707 	 32.9644 	 58.3447 	 
C 	 37.2037 	 32.9614 	 56.9491 	 
C 	 38.2141 	 33.1633 	 55.9983 	 
H 	 37.1078 	 32.8762 	 59.255 	 
C 	 35.6147 	 32.8191 	 56.7082 	 
H 	 35.5399 	 31.8054 	 56.8123 	 
H 	 35.168 	 32.9425 	 55.735 	 
C 	 34.6864 	 33.5745 	 57.6978 	 
H 	 34.7787 	 34.6156 	 57.5475 	 
H 	 34.8816 	 33.3885 	 58.7368 	 
C 	 33.1784 	 33.2626 	 57.4108 	 
H 	 32.5533 	 33.684 	 58.171 	 
H 	 32.9128 	 32.2007 	 57.4307 	 
H 	 32.9168 	 33.6635 	 56.3684 	 
H 	 38.5959 	 32.4228 	 51.0684 	 
H 	 39.5413 	 33.1857 	 59.3757 	 
