34

S 	 -29.611 	 0.802872 	 100.789 	 
C 	 -29.9279 	 -0.618925 	 101.64 	 
C 	 -29.4433 	 -0.558465 	 102.92 	 
C 	 -28.8523 	 0.750903 	 103.25 	 
C 	 -28.8164 	 1.59191 	 102.132 	 
H 	 -28.2927 	 1.17851 	 104.07 	 
C 	 -29.6002 	 -1.60658 	 104.085 	 
H 	 -30.0123 	 -2.55391 	 103.818 	 
H 	 -30.2618 	 -1.0102 	 104.758 	 
C 	 -28.2462 	 -1.94176 	 104.911 	 
H 	 -27.7365 	 -1.05663 	 105.022 	 
H 	 -28.5406 	 -2.36103 	 105.844 	 
C 	 -27.25 	 -2.90877 	 104.336 	 
H 	 -27.3002 	 -2.90471 	 103.227 	 
H 	 -26.2903 	 -2.51769 	 104.473 	 
H 	 -27.2812 	 -3.87207 	 104.841 	 
S 	 -26.6794 	 3.40743 	 102.633 	 
C 	 -26.7992 	 4.96245 	 102.013 	 
C 	 -28.0441 	 5.21911 	 101.583 	 
C 	 -28.9615 	 4.1226 	 101.545 	 
C 	 -28.3492 	 2.99831 	 102.107 	 
H 	 -28.168 	 6.20508 	 101.219 	 
C 	 -30.349 	 4.22274 	 100.974 	 
H 	 -30.8128 	 3.24154 	 100.904 	 
H 	 -30.3418 	 4.64967 	 99.982 	 
C 	 -31.3458 	 5.09995 	 101.696 	 
H 	 -30.9442 	 6.09067 	 101.884 	 
H 	 -31.5511 	 4.57681 	 102.7 	 
C 	 -32.806 	 5.25116 	 101.178 	 
H 	 -33.209 	 4.30038 	 100.853 	 
H 	 -32.8731 	 5.91158 	 100.316 	 
H 	 -33.4294 	 5.68969 	 101.942 	 
H 	 -30.4765 	 -1.45731 	 101.18 	 
H 	 -26.0043 	 5.65721 	 102.169 	 
