34

S 	 -71.2747 	 48.0901 	 133.784 	 
C 	 -72.2922 	 49.5519 	 133.784 	 
C 	 -73.4508 	 49.2983 	 134.465 	 
C 	 -73.5283 	 47.928 	 134.834 	 
C 	 -72.4441 	 47.125 	 134.745 	 
H 	 -74.4109 	 47.7071 	 135.338 	 
C 	 -74.5461 	 50.3447 	 134.528 	 
H 	 -75.1247 	 50.0592 	 133.668 	 
H 	 -74.0929 	 51.2902 	 134.402 	 
C 	 -75.4925 	 50.3187 	 135.682 	 
H 	 -75.9818 	 49.3212 	 135.769 	 
H 	 -75.0165 	 50.3667 	 136.58 	 
C 	 -76.4976 	 51.4338 	 135.629 	 
H 	 -77.1024 	 51.3825 	 134.736 	 
H 	 -77.1289 	 51.4542 	 136.541 	 
H 	 -76.0191 	 52.3347 	 135.556 	 
S 	 -73.9048 	 44.9511 	 135.599 	 
C 	 -73.2095 	 43.4239 	 136.128 	 
C 	 -71.8264 	 43.5832 	 136.052 	 
C 	 -71.4038 	 44.8333 	 135.518 	 
C 	 -72.3737 	 45.7549 	 135.238 	 
H 	 -71.2162 	 42.7594 	 136.433 	 
C 	 -69.9171 	 45.1194 	 135.385 	 
H 	 -69.8043 	 45.9945 	 136.056 	 
H 	 -69.8455 	 45.3787 	 134.365 	 
C 	 -68.8555 	 44.0871 	 135.651 	 
H 	 -69.1357 	 43.132 	 135.202 	 
H 	 -68.8523 	 43.8608 	 136.747 	 
C 	 -67.4538 	 44.428 	 135.097 	 
H 	 -66.9175 	 45.2248 	 135.645 	 
H 	 -67.4466 	 44.7542 	 134.034 	 
H 	 -66.9208 	 43.5135 	 135.227 	 
H 	 -72.1087 	 50.4931 	 133.421 	 
H 	 -73.7432 	 42.5313 	 136.507 	 
