34

S 	 69.8173 	 28.7163 	 70.765 	 
C 	 69.6043 	 29.7553 	 69.4179 	 
C 	 70.4677 	 29.3789 	 68.4049 	 
C 	 71.2968 	 28.235 	 68.8252 	 
C 	 71.0518 	 27.7389 	 70.0152 	 
H 	 72.1094 	 27.8433 	 68.181 	 
C 	 70.5444 	 29.9528 	 67.0375 	 
H 	 70.5326 	 29.1687 	 66.2858 	 
H 	 71.4963 	 30.5097 	 67.1708 	 
C 	 69.3221 	 30.7461 	 66.5536 	 
H 	 68.525 	 30.0251 	 66.5973 	 
H 	 69.0132 	 31.514 	 67.2649 	 
C 	 69.3168 	 31.4329 	 65.1906 	 
H 	 70.081 	 32.2529 	 64.9931 	 
H 	 69.3346 	 30.7688 	 64.3641 	 
H 	 68.3357 	 32.0021 	 65.2359 	 
S 	 72.6777 	 27.3337 	 72.1669 	 
C 	 73.2399 	 25.7169 	 72.4786 	 
C 	 73.0285 	 24.8011 	 71.4451 	 
C 	 72.2229 	 25.3618 	 70.4037 	 
C 	 71.8009 	 26.6705 	 70.7115 	 
H 	 73.5588 	 23.8156 	 71.3695 	 
C 	 71.6794 	 24.7414 	 69.1667 	 
H 	 72.2606 	 25.1921 	 68.3477 	 
H 	 70.698 	 25.0995 	 68.9656 	 
C 	 71.6937 	 23.2436 	 69.0804 	 
H 	 71.1846 	 23.0151 	 68.2264 	 
H 	 71.1462 	 22.876 	 69.9391 	 
C 	 73.0717 	 22.7259 	 69.0974 	 
H 	 73.2126 	 22.057 	 68.2215 	 
H 	 73.3789 	 22.1164 	 69.9199 	 
H 	 73.8247 	 23.5317 	 68.9425 	 
H 	 68.7455 	 30.4336 	 69.2463 	 
H 	 73.822 	 25.4497 	 73.4152 	 
