34

S 	 -84.5592 	 52.9216 	 137.134 	 
C 	 -84.7431 	 52.1798 	 138.71 	 
C 	 -83.6824 	 51.3885 	 139.007 	 
C 	 -82.602 	 51.6914 	 138.209 	 
C 	 -82.9358 	 52.3845 	 137.037 	 
H 	 -81.592 	 51.4623 	 138.395 	 
C 	 -83.4952 	 50.6097 	 140.272 	 
H 	 -84.4719 	 50.1352 	 140.407 	 
H 	 -83.2835 	 51.2974 	 141.123 	 
C 	 -82.2937 	 49.6656 	 140.468 	 
H 	 -81.363 	 50.2385 	 140.2 	 
H 	 -82.1332 	 49.4535 	 141.573 	 
C 	 -82.5181 	 48.3896 	 139.581 	 
H 	 -83.2723 	 47.6503 	 140.097 	 
H 	 -82.9204 	 48.6258 	 138.599 	 
H 	 -81.6132 	 47.7771 	 139.421 	 
S 	 -81.3502 	 54.4539 	 136.131 	 
C 	 -80.485 	 54.2388 	 134.631 	 
C 	 -80.6785 	 52.9439 	 134.133 	 
C 	 -81.6674 	 52.157 	 134.802 	 
C 	 -82.0895 	 52.8708 	 135.969 	 
H 	 -80.2409 	 52.723 	 133.156 	 
C 	 -82.2289 	 50.8993 	 134.167 	 
H 	 -82.5239 	 51.1088 	 133.13 	 
H 	 -83.2006 	 50.6661 	 134.63 	 
C 	 -81.3424 	 49.6533 	 134.274 	 
H 	 -80.5755 	 49.7992 	 133.569 	 
H 	 -81.8455 	 48.7447 	 133.918 	 
C 	 -80.916 	 49.3997 	 135.746 	 
H 	 -81.719 	 48.9264 	 136.229 	 
H 	 -80.5806 	 50.2483 	 136.35 	 
H 	 -80.0283 	 48.8427 	 135.827 	 
H 	 -85.7182 	 52.194 	 139.287 	 
H 	 -79.6361 	 54.9438 	 134.334 	 
