34

S 	 -95.9869 	 40.4588 	 123.42 	 
C 	 -95.3191 	 39.7042 	 124.874 	 
C 	 -94.6615 	 38.5821 	 124.477 	 
C 	 -94.5252 	 38.4264 	 123.078 	 
C 	 -95.0049 	 39.4535 	 122.349 	 
H 	 -93.9123 	 37.8211 	 122.42 	 
C 	 -93.8753 	 37.7226 	 125.447 	 
H 	 -94.0527 	 36.7197 	 125.18 	 
H 	 -94.2822 	 37.9915 	 126.378 	 
C 	 -92.3232 	 37.875 	 125.457 	 
H 	 -91.8288 	 37.3975 	 126.28 	 
H 	 -91.9562 	 37.2599 	 124.623 	 
C 	 -91.8667 	 39.3366 	 125.595 	 
H 	 -92.0208 	 39.7981 	 124.622 	 
H 	 -92.3867 	 39.9908 	 126.335 	 
H 	 -90.7584 	 39.3562 	 125.757 	 
S 	 -96.289 	 38.9195 	 120.082 	 
C 	 -95.3874 	 38.9134 	 118.61 	 
C 	 -94.2361 	 39.6772 	 118.683 	 
C 	 -93.9603 	 40.0447 	 120.07 	 
C 	 -94.9074 	 39.5519 	 120.94 	 
H 	 -93.6409 	 39.9009 	 117.81 	 
C 	 -92.7382 	 40.7447 	 120.496 	 
H 	 -91.9637 	 40.1234 	 119.89 	 
H 	 -92.5684 	 40.4938 	 121.583 	 
C 	 -92.7092 	 42.186 	 120.11 	 
H 	 -92.6684 	 42.2192 	 119.033 	 
H 	 -91.7785 	 42.6626 	 120.486 	 
C 	 -93.9677 	 42.9995 	 120.462 	 
H 	 -94.136 	 43.7496 	 119.708 	 
H 	 -94.1161 	 43.4162 	 121.527 	 
H 	 -94.7943 	 42.292 	 120.349 	 
H 	 -95.3691 	 39.9949 	 125.916 	 
H 	 -95.6432 	 38.5281 	 117.644 	 
