34

S 	 -38.3623 	 30.0818 	 94.0196 	 
C 	 -39.1284 	 30.6239 	 95.4409 	 
C 	 -40.4363 	 31.0387 	 95.1896 	 
C 	 -40.744 	 30.8972 	 93.775 	 
C 	 -39.6763 	 30.5028 	 93.0026 	 
H 	 -41.6906 	 30.8968 	 93.3449 	 
C 	 -41.347 	 31.6201 	 96.2313 	 
H 	 -41.5095 	 30.8858 	 96.9957 	 
H 	 -42.3852 	 31.8271 	 95.9336 	 
C 	 -40.8646 	 33.0009 	 96.7072 	 
H 	 -41.3229 	 33.268 	 97.7374 	 
H 	 -39.8084 	 32.9582 	 96.9152 	 
C 	 -41.2499 	 34.1125 	 95.7343 	 
H 	 -41.1454 	 33.8913 	 94.675 	 
H 	 -42.2877 	 34.2076 	 95.8968 	 
H 	 -40.8202 	 35.0695 	 96.0411 	 
S 	 -39.1991 	 31.3635 	 90.4416 	 
C 	 -39.3429 	 30.2845 	 89.1312 	 
C 	 -39.9715 	 29.1005 	 89.5094 	 
C 	 -40.2143 	 28.9665 	 90.9606 	 
C 	 -39.8199 	 30.1636 	 91.5812 	 
H 	 -40.0443 	 28.2954 	 88.7707 	 
C 	 -40.5936 	 27.6879 	 91.617 	 
H 	 -40.8468 	 26.9071 	 90.9543 	 
H 	 -41.5166 	 27.9152 	 92.1726 	 
C 	 -39.5744 	 27.0771 	 92.661 	 
H 	 -40.039 	 26.1617 	 93.0544 	 
H 	 -39.4561 	 27.6878 	 93.6052 	 
C 	 -38.3068 	 26.6248 	 91.9573 	 
H 	 -37.714 	 27.4036 	 91.4872 	 
H 	 -38.6204 	 25.9186 	 91.167 	 
H 	 -37.6196 	 26.1171 	 92.634 	 
H 	 -38.6317 	 30.7142 	 96.3733 	 
H 	 -39.118 	 30.5885 	 88.088 	 
