34

S 	 16.5795 	 4.767 	 85.8059 	 
C 	 17.4103 	 6.19511 	 86.2921 	 
C 	 16.5299 	 7.06655 	 86.8159 	 
C 	 15.156 	 6.75329 	 86.7792 	 
C 	 14.9988 	 5.4891 	 86.2131 	 
H 	 14.2386 	 7.34714 	 87.0731 	 
C 	 16.9008 	 8.42193 	 87.4611 	 
H 	 17.8889 	 8.38377 	 87.8819 	 
H 	 16.3854 	 8.50403 	 88.394 	 
C 	 16.9647 	 9.84315 	 86.754 	 
H 	 16.0863 	 10.3216 	 86.319 	 
H 	 17.2029 	 10.5056 	 87.6094 	 
C 	 18.0295 	 9.79158 	 85.6482 	 
H 	 18.2336 	 10.811 	 85.2973 	 
H 	 19.0734 	 9.43449 	 86.0359 	 
H 	 17.6231 	 9.08434 	 84.8812 	 
S 	 13.7074 	 3.42118 	 87.2454 	 
C 	 12.0896 	 2.89566 	 86.6252 	 
C 	 11.8018 	 3.63254 	 85.4924 	 
C 	 12.7346 	 4.68026 	 85.2599 	 
C 	 13.8153 	 4.71323 	 86.1325 	 
H 	 10.8922 	 3.42248 	 84.9879 	 
C 	 12.5281 	 5.58733 	 84.0882 	 
H 	 12.1676 	 5.07578 	 83.2898 	 
H 	 13.5151 	 6.02831 	 83.7872 	 
C 	 11.5066 	 6.66147 	 84.4599 	 
H 	 10.589 	 6.0744 	 84.7154 	 
H 	 11.3046 	 7.22622 	 83.574 	 
C 	 11.9207 	 7.7553 	 85.509 	 
H 	 12.9209 	 7.99358 	 85.3149 	 
H 	 11.6781 	 7.37224 	 86.5311 	 
H 	 11.2747 	 8.62599 	 85.3552 	 
H 	 18.4567 	 6.37295 	 86.3694 	 
H 	 11.4665 	 2.22763 	 87.0835 	 
