34

S 	 -1.53491 	 76.7552 	 49.7871 	 
C 	 -1.46833 	 78.275 	 50.6457 	 
C 	 -2.70853 	 78.9182 	 50.4777 	 
C 	 -3.67225 	 78.1509 	 49.7395 	 
C 	 -3.22742 	 76.8546 	 49.5015 	 
H 	 -4.59649 	 78.5743 	 49.3683 	 
C 	 -2.92258 	 80.3517 	 50.8467 	 
H 	 -2.82079 	 80.3942 	 51.8992 	 
H 	 -3.93124 	 80.592 	 50.7505 	 
C 	 -2.00717 	 81.2178 	 50.0386 	 
H 	 -0.955772 	 81.2167 	 50.2993 	 
H 	 -2.04141 	 80.9134 	 49.0073 	 
C 	 -2.50019 	 82.7137 	 50.0923 	 
H 	 -3.5653 	 82.779 	 49.8596 	 
H 	 -2.31254 	 83.1421 	 51.1201 	 
H 	 -1.85944 	 83.3326 	 49.4797 	 
S 	 -3.05068 	 74.9674 	 47.5164 	 
C 	 -4.48883 	 74.0382 	 46.9861 	 
C 	 -5.58077 	 74.5644 	 47.6491 	 
C 	 -5.30132 	 75.6373 	 48.6021 	 
C 	 -3.94792 	 75.8806 	 48.6853 	 
H 	 -6.54466 	 74.1955 	 47.4208 	 
C 	 -6.38604 	 76.261 	 49.3593 	 
H 	 -6.04721 	 76.9698 	 50.1519 	 
H 	 -6.92522 	 75.447 	 49.849 	 
C 	 -7.32731 	 76.9923 	 48.366 	 
H 	 -7.7427 	 76.3348 	 47.7014 	 
H 	 -6.73569 	 77.7404 	 47.824 	 
C 	 -8.59424 	 77.6127 	 49.0087 	 
H 	 -8.33272 	 78.2204 	 49.8648 	 
H 	 -9.2984 	 76.7781 	 49.277 	 
H 	 -9.2493 	 78.1669 	 48.3166 	 
H 	 -0.646833 	 78.6655 	 51.0633 	 
H 	 -4.35148 	 73.3114 	 46.1903 	 
