34

S 	 -52.9904 	 63.226 	 129.161 	 
C 	 -53.5165 	 62.0386 	 127.918 	 
C 	 -52.5309 	 61.1434 	 127.515 	 
C 	 -51.2785 	 61.4769 	 128.16 	 
C 	 -51.3849 	 62.4938 	 129.083 	 
H 	 -50.3257 	 61.0011 	 128.048 	 
C 	 -52.7535 	 59.9017 	 126.667 	 
H 	 -52.2939 	 60.1742 	 125.682 	 
H 	 -53.8573 	 59.8522 	 126.437 	 
C 	 -52.1205 	 58.563 	 127.155 	 
H 	 -51.1546 	 58.8534 	 127.559 	 
H 	 -52.753 	 58.1609 	 127.947 	 
C 	 -51.7225 	 57.5425 	 126.041 	 
H 	 -51.2709 	 56.7483 	 126.675 	 
H 	 -52.4704 	 57.2125 	 125.396 	 
H 	 -50.9527 	 58.0417 	 125.509 	 
S 	 -49.406 	 64.3508 	 129.872 	 
C 	 -48.3983 	 63.911 	 131.121 	 
C 	 -48.6945 	 62.6548 	 131.664 	 
C 	 -49.8177 	 62.0218 	 131.044 	 
C 	 -50.4066 	 62.8691 	 130.103 	 
H 	 -47.9929 	 62.2179 	 132.393 	 
C 	 -50.3123 	 60.6148 	 131.396 	 
H 	 -49.6346 	 59.8478 	 131.641 	 
H 	 -50.8252 	 60.2006 	 130.481 	 
C 	 -51.3059 	 60.5118 	 132.471 	 
H 	 -50.8615 	 61.0134 	 133.363 	 
H 	 -51.3937 	 59.4367 	 132.775 	 
C 	 -52.6997 	 61.0392 	 132.134 	 
H 	 -52.785 	 62.1295 	 131.968 	 
H 	 -53.4997 	 60.7271 	 132.844 	 
H 	 -52.9011 	 60.4836 	 131.188 	 
H 	 -54.5612 	 61.7845 	 127.878 	 
H 	 -47.4797 	 64.461 	 131.334 	 
