34

S 	 -35.6002 	 40.1721 	 97.7556 	 
C 	 -34.5715 	 39.4182 	 98.931 	 
C 	 -33.3261 	 39.3541 	 98.3608 	 
C 	 -33.2307 	 39.6342 	 96.9218 	 
C 	 -34.4872 	 39.9731 	 96.4655 	 
H 	 -32.4628 	 39.7772 	 96.2598 	 
C 	 -32.0754 	 39.1489 	 99.1492 	 
H 	 -31.4661 	 38.4379 	 98.7055 	 
H 	 -32.273 	 38.7684 	 100.105 	 
C 	 -31.15 	 40.3503 	 99.2615 	 
H 	 -30.8453 	 40.6861 	 98.2176 	 
H 	 -31.6332 	 41.296 	 99.5771 	 
C 	 -29.9559 	 40.1783 	 100.097 	 
H 	 -29.2551 	 39.5303 	 99.6131 	 
H 	 -29.3615 	 41.1182 	 100.057 	 
H 	 -30.0527 	 39.7825 	 101.102 	 
S 	 -34.9491 	 42.1905 	 94.9697 	 
C 	 -35.614 	 42.1175 	 93.4204 	 
C 	 -35.5434 	 40.8339 	 92.9175 	 
C 	 -35.1465 	 39.8722 	 93.9164 	 
C 	 -34.8274 	 40.4964 	 95.1444 	 
H 	 -35.9157 	 40.6366 	 91.9557 	 
C 	 -35.2527 	 38.3383 	 93.7507 	 
H 	 -34.32 	 37.717 	 94.0485 	 
H 	 -35.1103 	 38.1975 	 92.6897 	 
C 	 -36.4911 	 37.6293 	 94.3934 	 
H 	 -37.4797 	 37.8671 	 94.0977 	 
H 	 -36.5229 	 37.7326 	 95.5093 	 
C 	 -36.3811 	 36.0853 	 94.2494 	 
H 	 -37.2383 	 35.549 	 94.5182 	 
H 	 -35.5702 	 35.6947 	 94.906 	 
H 	 -36.124 	 35.7644 	 93.2702 	 
H 	 -34.7759 	 39.1618 	 99.9696 	 
H 	 -35.9508 	 42.9819 	 92.8387 	 
