34

S 	 -82.3648 	 44.4918 	 136.655 	 
C 	 -82.7705 	 43.4729 	 138.104 	 
C 	 -82.8953 	 44.2551 	 139.252 	 
C 	 -82.7785 	 45.6405 	 138.929 	 
C 	 -82.4214 	 45.9384 	 137.632 	 
H 	 -82.9355 	 46.41 	 139.655 	 
C 	 -83.1859 	 43.7274 	 140.648 	 
H 	 -83.7196 	 42.8002 	 140.384 	 
H 	 -83.8308 	 44.3709 	 141.191 	 
C 	 -81.9942 	 43.3975 	 141.561 	 
H 	 -81.3572 	 44.2659 	 141.69 	 
H 	 -82.3652 	 43.2958 	 142.55 	 
C 	 -81.1094 	 42.1794 	 141.119 	 
H 	 -80.1364 	 42.4787 	 140.539 	 
H 	 -80.8676 	 41.5254 	 141.954 	 
H 	 -81.6913 	 41.4945 	 140.489 	 
S 	 -82.7743 	 47.3751 	 135.293 	 
C 	 -82.4023 	 49.1069 	 135.26 	 
C 	 -81.8678 	 49.4302 	 136.457 	 
C 	 -81.7124 	 48.4218 	 137.487 	 
C 	 -82.2068 	 47.2297 	 136.981 	 
H 	 -81.4617 	 50.3809 	 136.634 	 
C 	 -81.2157 	 48.5735 	 138.885 	 
H 	 -81.9129 	 48.1288 	 139.562 	 
H 	 -81.1922 	 49.6447 	 139.148 	 
C 	 -79.7808 	 47.997 	 139.224 	 
H 	 -79.8196 	 46.9357 	 139.317 	 
H 	 -79.325 	 48.2709 	 140.16 	 
C 	 -78.7199 	 48.4143 	 138.24 	 
H 	 -78.5538 	 49.4591 	 138.183 	 
H 	 -79.1195 	 48.1177 	 137.272 	 
H 	 -77.7918 	 47.8649 	 138.365 	 
H 	 -82.806 	 42.4219 	 138.144 	 
H 	 -82.4016 	 49.6241 	 134.388 	 
