34

S 	 48.1005 	 3.48214 	 88.0949 	 
C 	 49.4016 	 3.56625 	 86.9174 	 
C 	 50.6409 	 3.10079 	 87.424 	 
C 	 50.451 	 2.67456 	 88.7985 	 
C 	 49.1792 	 2.93251 	 89.329 	 
H 	 51.224 	 2.29327 	 89.4951 	 
C 	 51.9527 	 3.15282 	 86.6737 	 
H 	 51.8664 	 3.53985 	 85.6188 	 
H 	 52.26 	 2.10257 	 86.4752 	 
C 	 53.0553 	 3.8417 	 87.4637 	 
H 	 52.7132 	 4.83044 	 87.7827 	 
H 	 53.1805 	 3.22548 	 88.3497 	 
C 	 54.3739 	 4.01652 	 86.7595 	 
H 	 54.2293 	 4.20038 	 85.6947 	 
H 	 55.0899 	 4.70689 	 87.1692 	 
H 	 54.8074 	 3.06679 	 86.8485 	 
S 	 48.6953 	 4.35891 	 91.5258 	 
C 	 49.0416 	 3.65411 	 93.1067 	 
C 	 49.1312 	 2.2973 	 92.9818 	 
C 	 49.1245 	 1.7982 	 91.6213 	 
C 	 48.8856 	 2.83151 	 90.7145 	 
H 	 49.2251 	 1.66518 	 93.9077 	 
C 	 49.4766 	 0.331234 	 91.2237 	 
H 	 50.1648 	 0.0168958 	 92.078 	 
H 	 50.0157 	 0.320894 	 90.2731 	 
C 	 48.3186 	 -0.70484 	 91.2237 	 
H 	 47.4532 	 -0.282881 	 91.768 	 
H 	 48.5706 	 -1.64665 	 91.6753 	 
C 	 47.8016 	 -1.20396 	 89.8861 	 
H 	 48.4004 	 -1.9635 	 89.326 	 
H 	 47.6392 	 -0.401827 	 89.2041 	 
H 	 46.809 	 -1.61687 	 90.0707 	 
H 	 49.2239 	 3.91355 	 85.9341 	 
H 	 48.8269 	 4.14226 	 94.0435 	 
