34

S 	 18.4654 	 -11.4434 	 82.6881 	 
C 	 17.3001 	 -10.2301 	 83.0125 	 
C 	 16.3619 	 -10.1303 	 82.062 	 
C 	 16.7345 	 -10.8893 	 80.9324 	 
C 	 17.9078 	 -11.6122 	 81.035 	 
H 	 16.1734 	 -11.0217 	 80.0146 	 
C 	 15.0574 	 -9.35939 	 82.2209 	 
H 	 15.1971 	 -8.77273 	 83.2139 	 
H 	 14.2264 	 -10.0776 	 82.341 	 
C 	 14.8479 	 -8.41052 	 81.0225 	 
H 	 15.7757 	 -7.81839 	 80.9374 	 
H 	 14.7524 	 -8.99492 	 80.0994 	 
C 	 13.7047 	 -7.41806 	 81.2026 	 
H 	 12.7101 	 -7.85257 	 81.2635 	 
H 	 13.903 	 -6.79243 	 82.0436 	 
H 	 13.587 	 -6.74791 	 80.2818 	 
S 	 19.5471 	 -13.8178 	 80.8684 	 
C 	 19.6059 	 -14.6914 	 79.3257 	 
C 	 18.8078 	 -14.0473 	 78.3997 	 
C 	 18.1017 	 -12.9086 	 78.887 	 
C 	 18.3224 	 -12.7462 	 80.2221 	 
H 	 18.8689 	 -14.2673 	 77.3427 	 
C 	 17.2187 	 -12.0911 	 78.0465 	 
H 	 17.4967 	 -12.2022 	 77.0011 	 
H 	 17.2964 	 -11.0143 	 78.3139 	 
C 	 15.7153 	 -12.5671 	 78.1225 	 
H 	 15.0639 	 -11.7959 	 77.7144 	 
H 	 15.2747 	 -12.7517 	 79.125 	 
C 	 15.4915 	 -13.8686 	 77.2765 	 
H 	 15.9559 	 -13.8503 	 76.3473 	 
H 	 14.4443 	 -14.1734 	 77.2004 	 
H 	 15.9692 	 -14.7238 	 77.831 	 
H 	 17.1981 	 -9.80251 	 84.0081 	 
H 	 20.1672 	 -15.5968 	 79.0845 	 
