34

S 	 -97.0454 	 51.6366 	 124.76 	 
C 	 -96.1838 	 51.2147 	 123.341 	 
C 	 -97.0496 	 50.7275 	 122.39 	 
C 	 -98.3841 	 50.6625 	 122.856 	 
C 	 -98.5781 	 51.2889 	 124.056 	 
H 	 -99.1683 	 50.2373 	 122.253 	 
C 	 -96.6975 	 50.4113 	 120.969 	 
H 	 -97.2935 	 49.5616 	 120.833 	 
H 	 -95.6981 	 50.0016 	 121.161 	 
C 	 -96.6977 	 51.5494 	 119.948 	 
H 	 -97.6888 	 51.9449 	 119.804 	 
H 	 -96.018 	 52.3254 	 120.257 	 
C 	 -96.379 	 50.9769 	 118.631 	 
H 	 -97.1591 	 50.6115 	 117.949 	 
H 	 -95.824 	 51.7541 	 118.155 	 
H 	 -95.6907 	 50.0756 	 118.878 	 
S 	 -100.196 	 53.1395 	 125.261 	 
C 	 -101.811 	 52.7319 	 125.593 	 
C 	 -102.115 	 51.4091 	 125.359 	 
C 	 -100.984 	 50.7449 	 124.773 	 
C 	 -99.8526 	 51.5403 	 124.676 	 
H 	 -103.092 	 51.0531 	 125.765 	 
C 	 -101.089 	 49.2702 	 124.485 	 
H 	 -100.695 	 49.0992 	 123.404 	 
H 	 -102.176 	 49.0542 	 124.322 	 
C 	 -100.653 	 48.2102 	 125.501 	 
H 	 -101.122 	 47.2363 	 125.285 	 
H 	 -101.192 	 48.5092 	 126.44 	 
C 	 -99.1594 	 47.9505 	 125.889 	 
H 	 -98.9621 	 47.2785 	 126.779 	 
H 	 -98.734 	 48.9202 	 126.044 	 
H 	 -98.6817 	 47.4968 	 124.998 	 
H 	 -95.1352 	 51.4165 	 123.062 	 
H 	 -102.527 	 53.518 	 126.005 	 
