34

S 	 -71.6797 	 51.302 	 126.353 	 
C 	 -71.2586 	 52.9661 	 126.684 	 
C 	 -72.2011 	 53.8192 	 126.149 	 
C 	 -73.2342 	 53.2045 	 125.388 	 
C 	 -73.1438 	 51.8158 	 125.524 	 
H 	 -74.0394 	 53.697 	 124.948 	 
C 	 -72.1549 	 55.3416 	 126.221 	 
H 	 -71.2836 	 55.6124 	 126.797 	 
H 	 -72.9089 	 55.7627 	 126.823 	 
C 	 -71.9899 	 56.1197 	 124.898 	 
H 	 -71.0771 	 55.9577 	 124.326 	 
H 	 -72.6725 	 55.7452 	 124.183 	 
C 	 -72.2313 	 57.6343 	 125.115 	 
H 	 -72.264 	 58.1847 	 124.159 	 
H 	 -73.1956 	 57.8525 	 125.578 	 
H 	 -71.4179 	 58.115 	 125.715 	 
S 	 -73.6681 	 50.2137 	 123.305 	 
C 	 -75.0224 	 49.1345 	 123.348 	 
C 	 -75.8898 	 49.4435 	 124.362 	 
C 	 -75.3172 	 50.3775 	 125.323 	 
C 	 -74.0695 	 50.8716 	 124.898 	 
H 	 -76.8349 	 48.9814 	 124.553 	 
C 	 -76.0627 	 50.7516 	 126.569 	 
H 	 -76.7898 	 51.4879 	 126.323 	 
H 	 -75.4474 	 51.1689 	 127.378 	 
C 	 -76.7013 	 49.5535 	 127.346 	 
H 	 -76.0344 	 48.729 	 127.443 	 
H 	 -77.576 	 49.1316 	 126.764 	 
C 	 -77.3899 	 49.9047 	 128.693 	 
H 	 -78.1677 	 49.1156 	 128.945 	 
H 	 -77.9114 	 50.8817 	 128.65 	 
H 	 -76.6306 	 49.9506 	 129.504 	 
H 	 -70.3659 	 53.2926 	 127.242 	 
H 	 -75.3402 	 48.4 	 122.607 	 
