34

S 	 12.2018 	 -11.6188 	 89.3141 	 
C 	 13.5037 	 -12.5951 	 88.8526 	 
C 	 13.1144 	 -13.8516 	 88.441 	 
C 	 11.7033 	 -14.0629 	 88.5495 	 
C 	 11.0599 	 -12.9807 	 89.1125 	 
H 	 11.2002 	 -14.9792 	 88.4525 	 
C 	 14.0291 	 -14.9149 	 87.768 	 
H 	 14.3684 	 -14.5353 	 86.8388 	 
H 	 13.4996 	 -15.7777 	 87.5708 	 
C 	 15.3818 	 -15.1862 	 88.4558 	 
H 	 16.0778 	 -15.6545 	 87.6432 	 
H 	 15.8574 	 -14.2765 	 88.6875 	 
C 	 15.2596 	 -16.0464 	 89.757 	 
H 	 14.7065 	 -15.5242 	 90.5526 	 
H 	 14.8753 	 -17.0674 	 89.6135 	 
H 	 16.3102 	 -16.0544 	 90.0407 	 
S 	 8.62116 	 -11.6219 	 88.72 	 
C 	 7.21045 	 -12.062 	 89.7153 	 
C 	 7.42669 	 -13.2551 	 90.3725 	 
C 	 8.75162 	 -13.7571 	 90.1824 	 
C 	 9.62471 	 -12.8939 	 89.4684 	 
H 	 6.65192 	 -13.6954 	 90.9554 	 
C 	 9.1239 	 -15.1143 	 90.881 	 
H 	 10.0627 	 -15.4169 	 90.4419 	 
H 	 8.33293 	 -15.8114 	 90.5336 	 
C 	 9.24482 	 -15.2131 	 92.393 	 
H 	 8.34681 	 -15.1558 	 92.8513 	 
H 	 9.91168 	 -14.3889 	 92.7979 	 
C 	 9.85863 	 -16.5619 	 92.8676 	 
H 	 10.1265 	 -17.2269 	 92.0298 	 
H 	 9.18602 	 -17.0357 	 93.5687 	 
H 	 10.7456 	 -16.3302 	 93.4309 	 
H 	 14.5124 	 -12.3252 	 88.6563 	 
H 	 6.26589 	 -11.5165 	 89.6671 	 
