34

S 	 16.8303 	 22.3268 	 39.7309 	 
C 	 17.4363 	 21.4346 	 38.2761 	 
C 	 16.5024 	 20.5734 	 37.6991 	 
C 	 15.2492 	 20.7584 	 38.3552 	 
C 	 15.2036 	 21.5678 	 39.5117 	 
H 	 14.3566 	 20.2986 	 38.0439 	 
C 	 16.7262 	 19.6068 	 36.5287 	 
H 	 16.2079 	 18.6756 	 36.7361 	 
H 	 17.7774 	 19.461 	 36.2408 	 
C 	 16.1771 	 20.0573 	 35.1438 	 
H 	 16.0215 	 19.1814 	 34.5253 	 
H 	 15.2326 	 20.5263 	 35.3728 	 
C 	 17.1142 	 21.01 	 34.3437 	 
H 	 17.4448 	 21.8628 	 34.98 	 
H 	 17.9817 	 20.5639 	 33.9643 	 
H 	 16.741 	 21.2839 	 33.3832 	 
S 	 14.3667 	 21.0822 	 42.083 	 
C 	 12.8319 	 21.6411 	 42.5809 	 
C 	 12.0826 	 22.1625 	 41.5828 	 
C 	 12.789 	 22.1891 	 40.4015 	 
C 	 14.1267 	 21.7816 	 40.4724 	 
H 	 11.0763 	 22.4501 	 41.7021 	 
C 	 12.0481 	 22.6597 	 39.1297 	 
H 	 10.9559 	 22.6416 	 39.1111 	 
H 	 12.4001 	 21.8874 	 38.4001 	 
C 	 12.414 	 24.0271 	 38.5066 	 
H 	 12.9434 	 24.0731 	 37.5666 	 
H 	 13.1913 	 24.4198 	 39.187 	 
C 	 11.0875 	 24.9467 	 38.538 	 
H 	 10.7064 	 24.9641 	 39.567 	 
H 	 10.414 	 24.6017 	 37.6906 	 
H 	 11.2734 	 25.9001 	 38.1339 	 
H 	 18.4515 	 21.4683 	 37.9392 	 
H 	 12.5008 	 21.587 	 43.6023 	 
