34

S 	 13.6254 	 23.4113 	 51.0551 	 
C 	 13.3695 	 22.6149 	 52.6085 	 
C 	 12.1309 	 21.9487 	 52.608 	 
C 	 11.5267 	 22.0158 	 51.3108 	 
C 	 12.2764 	 22.6102 	 50.2918 	 
H 	 10.625 	 21.5709 	 51.077 	 
C 	 11.4982 	 21.1362 	 53.6615 	 
H 	 10.7281 	 20.4958 	 53.1657 	 
H 	 10.9309 	 21.9042 	 54.1082 	 
C 	 12.3842 	 20.4193 	 54.6957 	 
H 	 13.1182 	 19.8384 	 54.1009 	 
H 	 12.9509 	 21.112 	 55.2756 	 
C 	 11.5367 	 19.6515 	 55.6946 	 
H 	 11.121 	 18.7207 	 55.2744 	 
H 	 12.0498 	 19.326 	 56.5784 	 
H 	 10.691 	 20.2019 	 56.0016 	 
S 	 10.338 	 22.3756 	 48.4993 	 
C 	 10.5113 	 22.9149 	 46.8353 	 
C 	 11.8502 	 23.2732 	 46.6022 	 
C 	 12.6744 	 23.3185 	 47.7801 	 
C 	 11.9771 	 22.8007 	 48.8695 	 
H 	 12.2391 	 23.4273 	 45.604 	 
C 	 14.0649 	 23.8368 	 47.6746 	 
H 	 14.5669 	 23.2957 	 46.8692 	 
H 	 14.5386 	 23.5843 	 48.6489 	 
C 	 14.2424 	 25.2981 	 47.3094 	 
H 	 13.6796 	 26.0552 	 47.9927 	 
H 	 13.7786 	 25.5094 	 46.3609 	 
C 	 15.675 	 25.7531 	 47.1841 	 
H 	 16.3136 	 25.71 	 48.0953 	 
H 	 15.6649 	 26.7938 	 46.9432 	 
H 	 16.1843 	 25.1975 	 46.4384 	 
H 	 14.0244 	 22.6792 	 53.4209 	 
H 	 9.81614 	 22.7326 	 45.9427 	 
