34

S 	 21.4132 	 33.0978 	 54.0714 	 
C 	 20.0274 	 32.7869 	 55.1603 	 
C 	 20.2429 	 33.297 	 56.4435 	 
C 	 21.4262 	 34.0721 	 56.4437 	 
C 	 22.1886 	 34.0727 	 55.3305 	 
H 	 21.7731 	 34.778 	 57.1869 	 
C 	 19.2424 	 33.3052 	 57.5714 	 
H 	 19.4625 	 32.3286 	 58.1235 	 
H 	 18.2414 	 33.2663 	 57.1072 	 
C 	 19.2625 	 34.5474 	 58.4865 	 
H 	 20.2338 	 34.6196 	 58.9796 	 
H 	 19.2137 	 35.5398 	 57.9439 	 
C 	 18.1847 	 34.6454 	 59.5518 	 
H 	 18.6104 	 35.2895 	 60.329 	 
H 	 17.266 	 34.8477 	 59.0368 	 
H 	 18.0449 	 33.6482 	 59.8384 	 
S 	 24.6097 	 34.4017 	 56.596 	 
C 	 26.0149 	 34.9349 	 55.7073 	 
C 	 25.6883 	 35.1964 	 54.4559 	 
C 	 24.3117 	 34.92 	 54.127 	 
C 	 23.5513 	 34.6127 	 55.2165 	 
H 	 26.4469 	 35.4132 	 53.7485 	 
C 	 23.9356 	 35.2781 	 52.687 	 
H 	 24.3666 	 36.2789 	 52.3926 	 
H 	 22.8412 	 35.4069 	 52.7366 	 
C 	 24.4585 	 34.1883 	 51.6622 	 
H 	 23.9638 	 33.2243 	 51.8002 	 
H 	 25.5273 	 34.0965 	 51.8277 	 
C 	 24.4319 	 34.7241 	 50.2069 	 
H 	 24.8678 	 35.724 	 50.3315 	 
H 	 23.4538 	 34.8584 	 49.8281 	 
H 	 24.9331 	 34.0805 	 49.4857 	 
H 	 19.2151 	 32.2455 	 54.8249 	 
H 	 26.9218 	 35.2481 	 56.1162 	 
