34

S 	 6.54216 	 -21.5584 	 85.2649 	 
C 	 6.93891 	 -22.2229 	 86.7803 	 
C 	 7.17623 	 -21.2652 	 87.7743 	 
C 	 6.82666 	 -19.9572 	 87.3069 	 
C 	 6.36064 	 -20.0299 	 85.9827 	 
H 	 6.66147 	 -18.9494 	 87.8717 	 
C 	 7.33771 	 -21.5576 	 89.2728 	 
H 	 8.00257 	 -20.8385 	 89.7501 	 
H 	 7.69906 	 -22.5501 	 89.3635 	 
C 	 6.02902 	 -21.4912 	 90.0355 	 
H 	 6.18746 	 -21.814 	 91.0731 	 
H 	 5.69821 	 -20.454 	 90.2798 	 
C 	 4.8745 	 -22.2049 	 89.4126 	 
H 	 4.4533 	 -21.4443 	 88.7327 	 
H 	 5.25137 	 -23.1653 	 88.9434 	 
H 	 4.0217 	 -22.2866 	 90.0814 	 
S 	 6.95468 	 -18.7471 	 83.6422 	 
C 	 6.19415 	 -17.2776 	 83.2791 	 
C 	 5.28715 	 -16.7664 	 84.2299 	 
C 	 5.24844 	 -17.7535 	 85.2867 	 
C 	 6.03667 	 -18.8769 	 85.1213 	 
H 	 4.78502 	 -15.8813 	 83.9727 	 
C 	 4.36215 	 -17.631 	 86.4609 	 
H 	 4.82918 	 -17.7255 	 87.3995 	 
H 	 3.56501 	 -18.4134 	 86.5055 	 
C 	 3.4497 	 -16.4445 	 86.4802 	 
H 	 2.4561 	 -16.7233 	 86.8529 	 
H 	 3.25578 	 -16.1734 	 85.5013 	 
C 	 3.9964 	 -15.1907 	 87.2529 	 
H 	 5.06453 	 -15.0136 	 86.8905 	 
H 	 3.97721 	 -15.3835 	 88.3024 	 
H 	 3.34414 	 -14.3306 	 87.2381 	 
H 	 7.12914 	 -23.279 	 86.9724 	 
H 	 6.4848 	 -16.7227 	 82.4306 	 
