34

S 	 -2.06857 	 79.5777 	 49.2842 	 
C 	 -1.32438 	 78.937 	 50.7311 	 
C 	 -0.0224471 	 78.5288 	 50.5056 	 
C 	 0.397601 	 78.7059 	 49.1701 	 
C 	 -0.558133 	 79.2717 	 48.3411 	 
H 	 1.41653 	 78.5239 	 48.8267 	 
C 	 0.987884 	 77.9021 	 51.5186 	 
H 	 1.0384 	 76.8447 	 51.3055 	 
H 	 0.517721 	 77.8952 	 52.4731 	 
C 	 2.39474 	 78.6352 	 51.6398 	 
H 	 3.17282 	 78.0727 	 52.1868 	 
H 	 2.77274 	 78.7709 	 50.6421 	 
C 	 2.41361 	 80.0192 	 52.2444 	 
H 	 3.37727 	 80.433 	 52.1698 	 
H 	 1.85284 	 80.7565 	 51.7012 	 
H 	 2.23262 	 79.9278 	 53.3195 	 
S 	 -0.997715 	 78.2405 	 45.7732 	 
C 	 -0.768406 	 79.2934 	 44.3784 	 
C 	 -0.358461 	 80.5589 	 44.7301 	 
C 	 -0.261352 	 80.6437 	 46.1635 	 
C 	 -0.579255 	 79.5363 	 46.9184 	 
H 	 -0.0257859 	 81.2865 	 44.0973 	 
C 	 0.315129 	 81.9051 	 46.7947 	 
H 	 0.0332948 	 81.9941 	 47.8415 	 
H 	 -0.190167 	 82.7434 	 46.2249 	 
C 	 1.86137 	 82.1173 	 46.6325 	 
H 	 2.00703 	 83.1892 	 46.79 	 
H 	 2.11026 	 81.9998 	 45.5856 	 
C 	 2.91151 	 81.3625 	 47.4578 	 
H 	 2.76564 	 80.2813 	 47.3698 	 
H 	 2.89228 	 81.6357 	 48.5581 	 
H 	 3.88268 	 81.5809 	 47.0527 	 
H 	 -1.8955 	 78.9091 	 51.6485 	 
H 	 -0.889712 	 78.9722 	 43.349 	 
