34

S 	 -0.633212 	 -24.4636 	 59.2396 	 
C 	 -2.17999 	 -24.1996 	 59.9379 	 
C 	 -3.1526 	 -24.9074 	 59.2228 	 
C 	 -2.59291 	 -25.4406 	 58.0394 	 
C 	 -1.30536 	 -25.2263 	 57.8084 	 
H 	 -3.0657 	 -25.9809 	 57.3144 	 
C 	 -4.67244 	 -24.9557 	 59.482 	 
H 	 -5.07603 	 -24.7808 	 58.4798 	 
H 	 -4.94542 	 -24.1401 	 60.1573 	 
C 	 -5.29277 	 -26.1899 	 60.208 	 
H 	 -5.10127 	 -27.1797 	 59.7376 	 
H 	 -4.58655 	 -26.2029 	 61.1035 	 
C 	 -6.72065 	 -25.9884 	 60.6167 	 
H 	 -6.80271 	 -24.993 	 61.1521 	 
H 	 -7.39727 	 -26.1018 	 59.7722 	 
H 	 -7.11826 	 -26.7333 	 61.3214 	 
S 	 1.07588 	 -26.0009 	 56.8053 	 
C 	 1.17291 	 -26.5551 	 55.1376 	 
C 	 0.0204739 	 -26.1466 	 54.4326 	 
C 	 -0.956803 	 -25.5627 	 55.3001 	 
C 	 -0.533 	 -25.3809 	 56.6322 	 
H 	 -0.110519 	 -26.2834 	 53.4004 	 
C 	 -2.22829 	 -25.0811 	 54.6789 	 
H 	 -3.10962 	 -25.1181 	 55.2878 	 
H 	 -2.38495 	 -25.7758 	 53.8918 	 
C 	 -2.19157 	 -23.7156 	 54.0137 	 
H 	 -3.21432 	 -23.5161 	 53.6099 	 
H 	 -1.47808 	 -23.5926 	 53.1689 	 
C 	 -1.94743 	 -22.5944 	 55.0683 	 
H 	 -2.06703 	 -21.5747 	 54.6718 	 
H 	 -0.957443 	 -22.6377 	 55.4333 	 
H 	 -2.71333 	 -22.7089 	 55.8221 	 
H 	 -2.32324 	 -23.8051 	 60.9054 	 
H 	 1.95168 	 -27.1416 	 54.6516 	 
