34

S 	 -6.97794 	 41.7877 	 40.1216 	 
C 	 -7.80387 	 40.3593 	 39.5399 	 
C 	 -7.10663 	 39.9157 	 38.4145 	 
C 	 -6.06069 	 40.8004 	 37.9291 	 
C 	 -5.97723 	 41.9641 	 38.6012 	 
H 	 -5.32157 	 40.6711 	 37.1842 	 
C 	 -7.44416 	 38.6266 	 37.6837 	 
H 	 -7.77988 	 38.8151 	 36.6012 	 
H 	 -8.32218 	 38.2601 	 38.1722 	 
C 	 -6.39515 	 37.4816 	 37.7099 	 
H 	 -5.46642 	 37.794 	 37.2669 	 
H 	 -6.01661 	 37.2216 	 38.7136 	 
C 	 -6.89582 	 36.2249 	 36.9688 	 
H 	 -6.68294 	 36.4296 	 35.9105 	 
H 	 -6.44169 	 35.2855 	 37.2086 	 
H 	 -7.99125 	 36.1529 	 37.0594 	 
S 	 -4.09285 	 43.3187 	 40.0138 	 
C 	 -2.77636 	 44.1226 	 39.1664 	 
C 	 -2.98759 	 44.0284 	 37.8171 	 
C 	 -4.19946 	 43.3097 	 37.4006 	 
C 	 -4.8125 	 42.7953 	 38.5205 	 
H 	 -2.26348 	 44.5449 	 37.1868 	 
C 	 -4.46737 	 43.1871 	 35.9203 	 
H 	 -4.20977 	 44.1781 	 35.5104 	 
H 	 -5.5801 	 43.1565 	 35.8333 	 
C 	 -3.57612 	 42.1923 	 35.1879 	 
H 	 -3.53467 	 41.1684 	 35.5909 	 
H 	 -2.53115 	 42.6269 	 35.1134 	 
C 	 -3.91497 	 41.9623 	 33.6925 	 
H 	 -3.83435 	 42.8841 	 33.2036 	 
H 	 -4.94183 	 41.6359 	 33.5475 	 
H 	 -3.34916 	 41.1729 	 33.2387 	 
H 	 -8.72313 	 39.8761 	 39.9807 	 
H 	 -2.03522 	 44.7361 	 39.5694 	 
