34

S 	 -1.40537 	 -21.1553 	 57.0642 	 
C 	 -1.78794 	 -20.2024 	 55.6337 	 
C 	 -2.34946 	 -18.9863 	 55.965 	 
C 	 -2.29142 	 -18.7902 	 57.3444 	 
C 	 -1.77298 	 -19.8028 	 58.0679 	 
H 	 -2.67017 	 -17.902 	 57.8886 	 
C 	 -2.83837 	 -17.8541 	 55.0234 	 
H 	 -2.14902 	 -17.8374 	 54.156 	 
H 	 -2.5757 	 -16.9223 	 55.4854 	 
C 	 -4.33398 	 -17.9379 	 54.6531 	 
H 	 -4.42369 	 -17.4733 	 53.6812 	 
H 	 -4.66703 	 -18.9896 	 54.5143 	 
C 	 -5.20769 	 -17.1872 	 55.6567 	 
H 	 -6.18029 	 -17.2966 	 55.3297 	 
H 	 -5.23778 	 -17.719 	 56.6612 	 
H 	 -4.99501 	 -16.0753 	 55.8514 	 
S 	 -3.13491 	 -20.739 	 60.2951 	 
C 	 -2.67414 	 -20.1327 	 61.8766 	 
C 	 -1.60214 	 -19.2504 	 61.7869 	 
C 	 -1.01407 	 -19.1879 	 60.4501 	 
C 	 -1.72996 	 -19.9488 	 59.5233 	 
H 	 -1.34145 	 -18.6411 	 62.5809 	 
C 	 0.23576 	 -18.4316 	 60.099 	 
H 	 0.118213 	 -17.9637 	 59.1032 	 
H 	 1.07737 	 -19.0979 	 60.2527 	 
C 	 0.452879 	 -17.1411 	 60.9495 	 
H 	 1.43003 	 -16.7905 	 60.6005 	 
H 	 0.625866 	 -17.3898 	 62.0355 	 
C 	 -0.787812 	 -16.1947 	 60.8846 	 
H 	 -0.697375 	 -15.3961 	 61.5887 	 
H 	 -1.74204 	 -16.6972 	 61.0987 	 
H 	 -0.734453 	 -15.6469 	 59.9609 	 
H 	 -1.76383 	 -20.475 	 54.5621 	 
H 	 -3.33742 	 -20.2535 	 62.7268 	 
