34

S 	 7.65487 	 -11.7458 	 60.4362 	 
C 	 7.23067 	 -10.3995 	 61.4364 	 
C 	 6.78733 	 -10.8256 	 62.7019 	 
C 	 6.86691 	 -12.2631 	 62.7883 	 
C 	 7.21489 	 -12.9269 	 61.6343 	 
H 	 6.47484 	 -12.7288 	 63.6218 	 
C 	 6.13693 	 -9.94693 	 63.7834 	 
H 	 6.07404 	 -10.4834 	 64.6687 	 
H 	 5.16018 	 -9.68913 	 63.4028 	 
C 	 6.82466 	 -8.54164 	 64.0281 	 
H 	 6.93732 	 -7.93353 	 63.0804 	 
H 	 6.14111 	 -7.96258 	 64.6592 	 
C 	 8.17633 	 -8.75285 	 64.7643 	 
H 	 8.98967 	 -8.97206 	 63.9916 	 
H 	 8.34843 	 -7.77379 	 65.1819 	 
H 	 8.14436 	 -9.41539 	 65.5671 	 
S 	 8.56527 	 -15.1761 	 61.1292 	 
C 	 7.72582 	 -16.6931 	 60.8146 	 
C 	 6.39447 	 -16.6086 	 61.0123 	 
C 	 5.99524 	 -15.2573 	 61.3128 	 
C 	 7.05439 	 -14.3574 	 61.3273 	 
H 	 5.78065 	 -17.5064 	 60.9853 	 
C 	 4.56569 	 -14.8459 	 61.5495 	 
H 	 4.0092 	 -15.0653 	 60.6285 	 
H 	 4.45894 	 -13.7698 	 61.7289 	 
C 	 3.80934 	 -15.643 	 62.6193 	 
H 	 4.44688 	 -15.7527 	 63.4674 	 
H 	 3.73468 	 -16.6776 	 62.1445 	 
C 	 2.42483 	 -15.0359 	 63.0252 	 
H 	 2.62776 	 -13.9732 	 63.2745 	 
H 	 1.86394 	 -15.4081 	 63.904 	 
H 	 1.72264 	 -15.1357 	 62.235 	 
H 	 7.0621 	 -9.36344 	 61.1629 	 
H 	 8.2492 	 -17.6157 	 60.6132 	 
