34

S 	 51.5534 	 5.72311 	 83.9315 	 
C 	 52.8253 	 6.3969 	 82.9406 	 
C 	 52.8559 	 5.76802 	 81.7321 	 
C 	 51.6956 	 4.92059 	 81.4903 	 
C 	 50.8892 	 4.77389 	 82.5989 	 
H 	 51.4837 	 4.36824 	 80.5458 	 
C 	 53.9728 	 5.88842 	 80.7642 	 
H 	 53.9215 	 6.9117 	 80.2559 	 
H 	 53.7549 	 5.12276 	 79.9905 	 
C 	 55.3681 	 5.62751 	 81.2645 	 
H 	 55.6483 	 6.3061 	 82.0941 	 
H 	 55.4191 	 4.64463 	 81.7203 	 
C 	 56.4121 	 5.66975 	 80.1651 	 
H 	 56.2412 	 6.32285 	 79.3637 	 
H 	 57.3925 	 5.7989 	 80.6077 	 
H 	 56.3405 	 4.66518 	 79.631 	 
S 	 48.4295 	 4.42091 	 83.6416 	 
C 	 47.5904 	 2.87769 	 83.4511 	 
C 	 48.3294 	 1.94597 	 82.779 	 
C 	 49.5965 	 2.52025 	 82.3348 	 
C 	 49.7756 	 3.86376 	 82.7347 	 
H 	 47.9682 	 0.91675 	 82.8366 	 
C 	 50.6853 	 1.58533 	 81.6898 	 
H 	 51.3731 	 1.09865 	 82.4577 	 
H 	 51.2923 	 2.25662 	 81.1172 	 
C 	 50.1405 	 0.415125 	 80.8623 	 
H 	 49.4685 	 0.825826 	 80.107 	 
H 	 49.6128 	 -0.353124 	 81.5096 	 
C 	 51.1198 	 -0.329999 	 79.9986 	 
H 	 50.8068 	 -1.23792 	 79.6105 	 
H 	 51.9087 	 -0.685543 	 80.6372 	 
H 	 51.4686 	 0.201266 	 79.1394 	 
H 	 53.5832 	 6.97036 	 83.3844 	 
H 	 46.6314 	 2.59929 	 83.8001 	 
