34

S 	 25.3583 	 -13.3588 	 81.3154 	 
C 	 25.46 	 -13.3212 	 79.6037 	 
C 	 24.6816 	 -12.31 	 79.0963 	 
C 	 24.0978 	 -11.4756 	 80.1161 	 
C 	 24.2611 	 -12.0454 	 81.3982 	 
H 	 23.4539 	 -10.6126 	 79.964 	 
C 	 24.4099 	 -11.8212 	 77.6577 	 
H 	 23.3627 	 -11.4943 	 77.6066 	 
H 	 24.4897 	 -12.5963 	 76.9163 	 
C 	 25.4286 	 -10.7164 	 77.2357 	 
H 	 25.1733 	 -10.2071 	 76.3129 	 
H 	 25.3025 	 -9.86475 	 77.9638 	 
C 	 26.7859 	 -11.4097 	 77.0774 	 
H 	 27.5242 	 -10.8376 	 76.3668 	 
H 	 27.2612 	 -11.6072 	 78.0359 	 
H 	 26.6923 	 -12.3715 	 76.5022 	 
S 	 22.8455 	 -12.2378 	 83.7888 	 
C 	 22.8414 	 -10.818 	 84.8281 	 
C 	 23.8975 	 -9.94443 	 84.3705 	 
C 	 24.465 	 -10.2567 	 83.1381 	 
C 	 23.9866 	 -11.4727 	 82.6896 	 
H 	 24.1251 	 -9.08367 	 84.924 	 
C 	 25.4583 	 -9.33397 	 82.5149 	 
H 	 26.1607 	 -9.95693 	 81.8752 	 
H 	 26.0986 	 -8.97122 	 83.3397 	 
C 	 24.6676 	 -8.18629 	 81.767 	 
H 	 23.9327 	 -7.73297 	 82.4549 	 
H 	 24.1184 	 -8.58482 	 80.9306 	 
C 	 25.4666 	 -6.99265 	 81.3157 	 
H 	 24.6759 	 -6.26742 	 80.9611 	 
H 	 26.2201 	 -7.24508 	 80.5122 	 
H 	 25.8775 	 -6.40523 	 82.1615 	 
H 	 25.9528 	 -14.0085 	 79.0132 	 
H 	 22.3888 	 -10.7576 	 85.7545 	 
