34

S 	 48.0014 	 21.8443 	 87.8463 	 
C 	 47.1931 	 23.0149 	 88.7645 	 
C 	 47.8487 	 23.4301 	 89.863 	 
C 	 48.9078 	 22.5497 	 90.1673 	 
C 	 49.1423 	 21.61 	 89.1637 	 
H 	 49.5911 	 22.6851 	 90.9595 	 
C 	 47.4579 	 24.5952 	 90.7718 	 
H 	 46.8461 	 24.3367 	 91.6099 	 
H 	 47.0089 	 25.3067 	 90.1116 	 
C 	 48.4581 	 25.1706 	 91.736 	 
H 	 48.0293 	 25.9636 	 92.3362 	 
H 	 48.8237 	 24.4047 	 92.4318 	 
C 	 49.6596 	 25.8483 	 91.1129 	 
H 	 50.3285 	 26.3242 	 91.8918 	 
H 	 50.1995 	 25.169 	 90.5629 	 
H 	 49.3953 	 26.6381 	 90.3741 	 
S 	 49.8673 	 18.9384 	 89.0538 	 
C 	 51.5261 	 18.5234 	 89.0814 	 
C 	 52.3205 	 19.6354 	 89.3021 	 
C 	 51.5963 	 20.8691 	 89.3801 	 
C 	 50.2164 	 20.6367 	 89.1888 	 
H 	 53.3568 	 19.4749 	 89.2507 	 
C 	 52.3271 	 22.2145 	 89.4246 	 
H 	 53.3607 	 22.0389 	 89.6808 	 
H 	 51.936 	 22.7174 	 90.2315 	 
C 	 52.3495 	 23.0408 	 88.1368 	 
H 	 51.5004 	 23.1279 	 87.5457 	 
H 	 52.9686 	 22.5088 	 87.4456 	 
C 	 52.9306 	 24.4643 	 88.3127 	 
H 	 53.9451 	 24.5367 	 88.6583 	 
H 	 52.3711 	 25.0987 	 89.1044 	 
H 	 52.9213 	 25.0412 	 87.4247 	 
H 	 46.2081 	 23.4012 	 88.4357 	 
H 	 51.876 	 17.5527 	 88.8597 	 
