34

S 	 9.63396 	 21.8646 	 55.0654 	 
C 	 9.55193 	 20.6793 	 53.8164 	 
C 	 8.69764 	 19.6431 	 54.2044 	 
C 	 7.90643 	 19.9776 	 55.4076 	 
C 	 8.15484 	 21.2638 	 55.7976 	 
H 	 7.27093 	 19.3307 	 55.9746 	 
C 	 8.66547 	 18.2861 	 53.4831 	 
H 	 9.07283 	 18.4315 	 52.4544 	 
H 	 7.61875 	 17.9269 	 53.4065 	 
C 	 9.40701 	 17.1138 	 54.22 	 
H 	 9.68216 	 16.3073 	 53.452 	 
H 	 10.3026 	 17.4632 	 54.7468 	 
C 	 8.52027 	 16.4763 	 55.306 	 
H 	 8.56365 	 17.1619 	 56.1655 	 
H 	 7.50283 	 16.4126 	 55.0233 	 
H 	 8.88668 	 15.4791 	 55.6269 	 
S 	 8.70117 	 23.0169 	 57.7931 	 
C 	 7.47139 	 23.3269 	 59.0397 	 
C 	 6.30652 	 22.5809 	 58.8727 	 
C 	 6.41794 	 21.9013 	 57.6639 	 
C 	 7.64814 	 21.8896 	 57.0589 	 
H 	 5.54407 	 22.5315 	 59.6326 	 
C 	 5.20707 	 21.1545 	 57.1 	 
H 	 5.37933 	 21.01 	 56.0376 	 
H 	 4.34951 	 21.862 	 57.2018 	 
C 	 4.974 	 19.7678 	 57.6431 	 
H 	 4.68581 	 19.8072 	 58.7469 	 
H 	 5.90376 	 19.1751 	 57.5347 	 
C 	 3.72171 	 19.0898 	 57.0244 	 
H 	 3.94814 	 18.8229 	 56.015 	 
H 	 2.84816 	 19.7995 	 56.9577 	 
H 	 3.44013 	 18.1915 	 57.5159 	 
H 	 10.265 	 20.5963 	 53.0064 	 
H 	 7.75344 	 23.941 	 59.8576 	 
