34

S 	 -48.2969 	 32.3201 	 92.9633 	 
C 	 -48.4671 	 32.2081 	 91.2466 	 
C 	 -49.4599 	 33.1108 	 90.8691 	 
C 	 -50.0019 	 33.9062 	 91.9482 	 
C 	 -49.4781 	 33.5771 	 93.1496 	 
H 	 -50.7889 	 34.661 	 91.9216 	 
C 	 -49.89 	 33.2242 	 89.4796 	 
H 	 -49.0006 	 33.2964 	 88.8167 	 
H 	 -50.411 	 34.0795 	 89.2503 	 
C 	 -50.746 	 32.0117 	 88.988 	 
H 	 -50.9392 	 32.1498 	 87.9293 	 
H 	 -50.1128 	 31.1544 	 89.1224 	 
C 	 -52.0586 	 31.8603 	 89.8258 	 
H 	 -51.8027 	 31.5327 	 90.8035 	 
H 	 -52.5805 	 32.8923 	 89.9077 	 
H 	 -52.6132 	 31.002 	 89.4578 	 
S 	 -48.2807 	 35.3893 	 94.706 	 
C 	 -49.2048 	 36.2787 	 95.9287 	 
C 	 -50.4891 	 35.7089 	 96.1153 	 
C 	 -50.7465 	 34.6269 	 95.2305 	 
C 	 -49.718 	 34.3492 	 94.3876 	 
H 	 -51.0852 	 35.93 	 97.0017 	 
C 	 -52.0646 	 33.825 	 95.2537 	 
H 	 -51.9853 	 33.3268 	 96.1556 	 
H 	 -52.1101 	 33.0768 	 94.4177 	 
C 	 -53.3872 	 34.564 	 95.1328 	 
H 	 -53.5065 	 35.3159 	 95.8559 	 
H 	 -54.2307 	 33.8526 	 95.3132 	 
C 	 -53.5801 	 34.99 	 93.65 	 
H 	 -52.8944 	 35.814 	 93.4196 	 
H 	 -54.5034 	 35.5321 	 93.5682 	 
H 	 -53.4779 	 34.1747 	 92.9668 	 
H 	 -47.9451 	 31.5017 	 90.5927 	 
H 	 -48.7905 	 37.0576 	 96.4668 	 
