34

S 	 -37.4147 	 58.0126 	 114.661 	 
C 	 -38.9173 	 58.4823 	 114.011 	 
C 	 -39.0248 	 58.219 	 112.657 	 
C 	 -37.9353 	 57.3901 	 112.231 	 
C 	 -37.0738 	 57.0109 	 113.223 	 
H 	 -37.7157 	 56.9647 	 111.242 	 
C 	 -40.2427 	 58.5706 	 111.901 	 
H 	 -40.7544 	 59.2142 	 112.588 	 
H 	 -40.8492 	 57.6582 	 111.941 	 
C 	 -39.9586 	 59.0484 	 110.537 	 
H 	 -39.3928 	 58.2879 	 110.038 	 
H 	 -40.936 	 59.1883 	 110.039 	 
C 	 -39.2741 	 60.3664 	 110.401 	 
H 	 -39.6262 	 61.0518 	 111.172 	 
H 	 -38.2557 	 60.173 	 110.753 	 
H 	 -39.339 	 60.8013 	 109.392 	 
S 	 -34.5078 	 56.8549 	 112.115 	 
C 	 -33.7167 	 55.2845 	 112.071 	 
C 	 -34.286 	 54.4526 	 112.99 	 
C 	 -35.5065 	 55.0091 	 113.547 	 
C 	 -35.8464 	 56.228 	 113.037 	 
H 	 -33.9228 	 53.4181 	 113.16 	 
C 	 -36.3243 	 54.2383 	 114.531 	 
H 	 -37.3041 	 54.7266 	 114.765 	 
H 	 -35.8374 	 54.2098 	 115.492 	 
C 	 -36.7842 	 52.8258 	 114.069 	 
H 	 -36.146 	 52.3485 	 113.336 	 
H 	 -37.7032 	 53.0408 	 113.392 	 
C 	 -37.0306 	 51.981 	 115.373 	 
H 	 -36.0931 	 51.4588 	 115.561 	 
H 	 -37.7855 	 51.1716 	 115.093 	 
H 	 -37.4286 	 52.5624 	 116.228 	 
H 	 -39.5909 	 59.1371 	 114.601 	 
H 	 -32.7045 	 55.1177 	 111.641 	 
