34

S 	 -43.3978 	 26.886 	 81.9664 	 
C 	 -44.1908 	 25.7231 	 80.933 	 
C 	 -43.6145 	 24.4978 	 81.1001 	 
C 	 -42.5405 	 24.5077 	 81.9937 	 
C 	 -42.2436 	 25.7601 	 82.4728 	 
H 	 -41.853 	 23.686 	 82.2766 	 
C 	 -44.1153 	 23.2193 	 80.4962 	 
H 	 -43.2486 	 22.7393 	 80.014 	 
H 	 -44.707 	 23.4985 	 79.6612 	 
C 	 -44.9823 	 22.3704 	 81.4139 	 
H 	 -45.2674 	 21.563 	 80.7945 	 
H 	 -44.4328 	 22.0591 	 82.3396 	 
C 	 -46.2203 	 23.1155 	 81.9656 	 
H 	 -45.8991 	 23.7652 	 82.7863 	 
H 	 -46.7209 	 23.7075 	 81.1568 	 
H 	 -46.8592 	 22.3141 	 82.3424 	 
S 	 -40.5006 	 25.201 	 84.4448 	 
C 	 -39.1441 	 26.2292 	 84.6962 	 
C 	 -39.1898 	 27.3164 	 83.8465 	 
C 	 -40.235 	 27.2939 	 82.9094 	 
C 	 -41.0807 	 26.2264 	 83.1688 	 
H 	 -38.3611 	 28.0831 	 83.9215 	 
C 	 -40.1606 	 28.2298 	 81.7981 	 
H 	 -40.2468 	 29.2077 	 82.2676 	 
H 	 -41.0767 	 28.061 	 81.2357 	 
C 	 -38.9167 	 28.0567 	 80.939 	 
H 	 -38.0316 	 28.2701 	 81.4832 	 
H 	 -39.0294 	 28.8082 	 80.1246 	 
C 	 -38.7833 	 26.6948 	 80.2081 	 
H 	 -37.9631 	 26.8355 	 79.4691 	 
H 	 -39.6469 	 26.4606 	 79.6526 	 
H 	 -38.6903 	 25.9173 	 80.9471 	 
H 	 -45.1079 	 25.8011 	 80.3843 	 
H 	 -38.4191 	 26.1553 	 85.4238 	 
