34

S 	 1.28501 	 77.0125 	 45.999 	 
C 	 -0.020325 	 75.9804 	 46.6316 	 
C 	 0.155444 	 74.6752 	 46.2092 	 
C 	 1.25159 	 74.6137 	 45.2728 	 
C 	 1.94017 	 75.8113 	 45.0033 	 
H 	 1.44645 	 73.7218 	 44.65 	 
C 	 -0.743799 	 73.5824 	 46.6063 	 
H 	 -0.591035 	 73.4851 	 47.6999 	 
H 	 -0.388 	 72.6855 	 46.1131 	 
C 	 -2.17799 	 73.7961 	 46.2541 	 
H 	 -2.66027 	 73.1157 	 46.8958 	 
H 	 -2.59422 	 74.8182 	 46.4262 	 
C 	 -2.41773 	 73.4791 	 44.7651 	 
H 	 -3.48162 	 73.6913 	 44.4177 	 
H 	 -1.8431 	 74.1018 	 44.0843 	 
H 	 -2.27503 	 72.4038 	 44.5519 	 
S 	 2.55766 	 75.9832 	 42.2838 	 
C 	 4.20796 	 75.9166 	 41.7657 	 
C 	 5.00465 	 76.2832 	 42.8163 	 
C 	 4.34997 	 76.4134 	 44.0972 	 
C 	 2.98701 	 76.0869 	 44.004 	 
H 	 6.06463 	 76.2247 	 42.5884 	 
C 	 5.17651 	 76.6973 	 45.3714 	 
H 	 6.24556 	 76.6496 	 45.1334 	 
H 	 4.9283 	 76.0263 	 46.1802 	 
C 	 5.04193 	 78.092 	 46.0912 	 
H 	 5.55315 	 78.0105 	 47.0679 	 
H 	 4.0143 	 78.4617 	 46.3005 	 
C 	 5.7716 	 79.1544 	 45.3011 	 
H 	 5.60308 	 79.9553 	 45.9961 	 
H 	 5.40656 	 79.424 	 44.2803 	 
H 	 6.83471 	 78.9669 	 45.1348 	 
H 	 -0.890959 	 76.2196 	 47.2648 	 
H 	 4.47442 	 75.8425 	 40.7032 	 
