34

S 	 41.1699 	 17.5666 	 47.6678 	 
C 	 40.0086 	 17.1438 	 46.4506 	 
C 	 39.8831 	 18.1517 	 45.4286 	 
C 	 40.8292 	 19.2097 	 45.7011 	 
C 	 41.5632 	 19.0251 	 46.8083 	 
H 	 40.9276 	 20.165 	 45.1764 	 
C 	 38.8619 	 18.0444 	 44.3233 	 
H 	 38.8863 	 18.9468 	 43.7609 	 
H 	 37.8505 	 18.0812 	 44.7421 	 
C 	 39.0098 	 16.831 	 43.3914 	 
H 	 38.857 	 15.857 	 43.8662 	 
H 	 38.0909 	 16.8328 	 42.6702 	 
C 	 40.2879 	 16.8381 	 42.5378 	 
H 	 40.3981 	 16.0108 	 41.8045 	 
H 	 40.1235 	 17.5954 	 41.7455 	 
H 	 41.1936 	 17.0277 	 43.1296 	 
S 	 44.1757 	 19.5193 	 46.4574 	 
C 	 44.9406 	 20.7781 	 47.342 	 
C 	 44.0532 	 21.457 	 48.1911 	 
C 	 42.7113 	 20.8737 	 48.1237 	 
C 	 42.665 	 19.8596 	 47.1801 	 
H 	 44.4068 	 22.2724 	 48.8405 	 
C 	 41.7345 	 21.5632 	 48.9642 	 
H 	 42.0155 	 21.6578 	 49.9905 	 
H 	 40.8398 	 20.8935 	 49.0183 	 
C 	 41.356 	 22.9944 	 48.5489 	 
H 	 42.206 	 23.6738 	 48.8132 	 
H 	 40.5679 	 23.2505 	 49.1947 	 
C 	 40.8894 	 23.2658 	 47.0639 	 
H 	 41.6669 	 23.2102 	 46.3239 	 
H 	 40.6614 	 24.3221 	 46.9354 	 
H 	 40.0988 	 22.5814 	 46.7567 	 
H 	 39.425 	 16.2488 	 46.5061 	 
H 	 45.9365 	 21.03 	 47.2744 	 
