34

S 	 6.34045 	 78.5693 	 46.0948 	 
C 	 6.88779 	 77.1445 	 45.1666 	 
C 	 7.1581 	 76.0477 	 45.9679 	 
C 	 6.73337 	 76.3369 	 47.2819 	 
C 	 6.24339 	 77.5852 	 47.5588 	 
H 	 6.68186 	 75.6033 	 48.0866 	 
C 	 7.9047 	 74.8155 	 45.5665 	 
H 	 8.54524 	 74.6002 	 46.3424 	 
H 	 8.54616 	 75.1292 	 44.7066 	 
C 	 7.14184 	 73.5529 	 45.2865 	 
H 	 6.49115 	 73.3194 	 46.1396 	 
H 	 6.51406 	 73.8693 	 44.4746 	 
C 	 7.99943 	 72.2461 	 45.0466 	 
H 	 7.42079 	 71.3021 	 44.9727 	 
H 	 8.61846 	 72.3752 	 44.183 	 
H 	 8.7921 	 72.199 	 45.8859 	 
S 	 6.72579 	 79.0454 	 49.8389 	 
C 	 5.46135 	 79.2288 	 51.0196 	 
C 	 4.26692 	 78.79 	 50.5244 	 
C 	 4.35684 	 78.1414 	 49.2598 	 
C 	 5.67251 	 78.0774 	 48.7951 	 
H 	 3.46533 	 78.8755 	 51.1392 	 
C 	 3.17651 	 77.4415 	 48.7183 	 
H 	 3.4391 	 76.9724 	 47.7432 	 
H 	 2.33326 	 78.0624 	 48.5166 	 
C 	 2.63863 	 76.2361 	 49.5248 	 
H 	 1.88504 	 75.8456 	 48.8758 	 
H 	 2.18974 	 76.4286 	 50.4562 	 
C 	 3.65954 	 75.0909 	 49.641 	 
H 	 4.38227 	 74.9811 	 48.8477 	 
H 	 3.19711 	 74.1228 	 49.7431 	 
H 	 4.30655 	 75.2456 	 50.5202 	 
H 	 6.96461 	 77.109 	 44.1038 	 
H 	 5.67817 	 79.7691 	 51.955 	 
