34

S 	 37.5283 	 16.7881 	 78.9919 	 
C 	 36.3947 	 16.4969 	 77.7187 	 
C 	 35.1878 	 16.0366 	 78.1869 	 
C 	 35.14 	 15.8989 	 79.6534 	 
C 	 36.3406 	 16.3509 	 80.1775 	 
H 	 34.4277 	 15.4804 	 80.3423 	 
C 	 33.9565 	 15.8357 	 77.2994 	 
H 	 34.2235 	 16.3543 	 76.3564 	 
H 	 33.0522 	 16.313 	 77.7878 	 
C 	 33.5414 	 14.3854 	 77.0312 	 
H 	 34.3871 	 13.7801 	 76.881 	 
H 	 33.1775 	 13.9956 	 77.961 	 
C 	 32.5654 	 14.116 	 75.8194 	 
H 	 32.4378 	 13.0865 	 75.5643 	 
H 	 31.5096 	 14.4347 	 75.9584 	 
H 	 32.9566 	 14.5761 	 74.8922 	 
S 	 37.9814 	 15.3173 	 82.1868 	 
C 	 37.7187 	 15.8637 	 83.8386 	 
C 	 36.5683 	 16.601 	 84.0107 	 
C 	 35.9138 	 16.8656 	 82.7493 	 
C 	 36.62 	 16.3231 	 81.6394 	 
H 	 36.2367 	 17.0366 	 85.0069 	 
C 	 34.586 	 17.6485 	 82.6679 	 
H 	 34.0943 	 17.2059 	 81.7817 	 
H 	 34.7787 	 18.7209 	 82.4524 	 
C 	 33.5409 	 17.4692 	 83.7328 	 
H 	 33.8589 	 17.7926 	 84.7509 	 
H 	 33.3121 	 16.4558 	 83.881 	 
C 	 32.0781 	 17.9646 	 83.4622 	 
H 	 31.5392 	 17.366 	 82.7605 	 
H 	 32.0946 	 19.0386 	 83.2004 	 
H 	 31.4403 	 17.9099 	 84.3231 	 
H 	 36.5842 	 16.7939 	 76.7136 	 
H 	 38.3704 	 15.7162 	 84.6917 	 
