34

S 	 48.5922 	 25.0808 	 44.7463 	 
C 	 50.3167 	 25.0045 	 44.7424 	 
C 	 50.8141 	 25.9072 	 45.6813 	 
C 	 49.8451 	 26.317 	 46.6358 	 
C 	 48.6006 	 25.8574 	 46.3437 	 
H 	 50.0338 	 26.8916 	 47.5589 	 
C 	 52.244 	 26.3571 	 45.6907 	 
H 	 52.7223 	 25.7556 	 46.3971 	 
H 	 52.2737 	 27.3179 	 46.2899 	 
C 	 53.0415 	 26.6105 	 44.3591 	 
H 	 53.2509 	 25.7383 	 43.7753 	 
H 	 52.5141 	 27.2988 	 43.6936 	 
C 	 54.2816 	 27.3865 	 44.7274 	 
H 	 54.0119 	 28.2311 	 45.3995 	 
H 	 54.9126 	 26.7357 	 45.3031 	 
H 	 54.9337 	 27.7881 	 43.9905 	 
S 	 46.7815 	 27.7322 	 47.2059 	 
C 	 45.4261 	 27.2245 	 48.129 	 
C 	 45.4654 	 25.8734 	 48.3918 	 
C 	 46.5428 	 25.2276 	 47.783 	 
C 	 47.406 	 26.1102 	 47.0937 	 
H 	 44.7843 	 25.4478 	 49.0602 	 
C 	 46.622 	 23.6741 	 47.7821 	 
H 	 47.5531 	 23.401 	 47.2175 	 
H 	 45.8457 	 23.1571 	 47.1656 	 
C 	 46.6002 	 23.0941 	 49.2341 	 
H 	 45.704 	 23.3155 	 49.7659 	 
H 	 47.4453 	 23.5587 	 49.8046 	 
C 	 46.7595 	 21.5795 	 49.3574 	 
H 	 47.7067 	 21.2194 	 49.0591 	 
H 	 45.9288 	 21.0328 	 48.7704 	 
H 	 46.6795 	 21.2102 	 50.5087 	 
H 	 50.8683 	 24.6787 	 43.875 	 
H 	 44.7393 	 27.8192 	 48.604 	 
