34

S 	 52.1036 	 21.6553 	 93.1931 	 
C 	 50.4662 	 21.8 	 92.5909 	 
C 	 50.0826 	 20.6116 	 92.0089 	 
C 	 51.1992 	 19.7674 	 91.7467 	 
C 	 52.4305 	 20.2139 	 92.2274 	 
H 	 51.2044 	 18.7712 	 91.2727 	 
C 	 48.633 	 20.3139 	 91.6756 	 
H 	 48.61 	 20.1313 	 90.5886 	 
H 	 48.0938 	 21.2266 	 91.8023 	 
C 	 48.1653 	 19.0735 	 92.4843 	 
H 	 47.2366 	 18.7216 	 92.0335 	 
H 	 48.8715 	 18.1991 	 92.4116 	 
C 	 47.8236 	 19.5654 	 93.9371 	 
H 	 48.8003 	 19.8039 	 94.3925 	 
H 	 47.1817 	 20.399 	 94.0008 	 
H 	 47.5465 	 18.643 	 94.4889 	 
S 	 54.1441 	 19.1595 	 94.1233 	 
C 	 55.1972 	 17.8105 	 93.6706 	 
C 	 55.092 	 17.5393 	 92.3195 	 
C 	 54.1852 	 18.3773 	 91.663 	 
C 	 53.5647 	 19.3149 	 92.4879 	 
H 	 55.5837 	 16.5669 	 92.0218 	 
C 	 53.8742 	 18.2828 	 90.1588 	 
H 	 52.8052 	 17.9507 	 89.9404 	 
H 	 54.28 	 17.4059 	 89.7623 	 
C 	 54.5002 	 19.303 	 89.1797 	 
H 	 55.6027 	 19.2931 	 89.2858 	 
H 	 54.0129 	 20.2306 	 89.416 	 
C 	 54.1308 	 18.9438 	 87.762 	 
H 	 54.4079 	 19.8113 	 87.1124 	 
H 	 53.1438 	 18.7322 	 87.6343 	 
H 	 54.6343 	 18.0236 	 87.3234 	 
H 	 49.8091 	 22.6366 	 92.8952 	 
H 	 55.5067 	 17.0875 	 94.4095 	 
