34

S 	 5.43081 	 -7.16214 	 90.0842 	 
C 	 6.58924 	 -6.34502 	 91.2101 	 
C 	 6.0506 	 -6.16475 	 92.4701 	 
C 	 4.66606 	 -6.54711 	 92.4808 	 
C 	 4.15242 	 -7.06365 	 91.3095 	 
H 	 4.08224 	 -6.64302 	 93.3411 	 
C 	 6.77846 	 -5.68853 	 93.7411 	 
H 	 6.68959 	 -4.59284 	 93.7527 	 
H 	 7.8601 	 -5.86593 	 93.724 	 
C 	 6.13301 	 -6.1159 	 95.0751 	 
H 	 6.56892 	 -5.51146 	 95.8608 	 
H 	 5.09367 	 -5.79274 	 95.1215 	 
C 	 6.32057 	 -7.54168 	 95.4492 	 
H 	 5.83418 	 -8.26219 	 94.7555 	 
H 	 7.41302 	 -7.773 	 95.4877 	 
H 	 5.93487 	 -7.72796 	 96.4273 	 
S 	 2.37172 	 -7.17568 	 89.2292 	 
C 	 0.655447 	 -7.53781 	 89.5532 	 
C 	 0.446782 	 -7.67153 	 90.9105 	 
C 	 1.58887 	 -7.55583 	 91.7619 	 
C 	 2.71128 	 -7.29177 	 90.9657 	 
H 	 -0.594485 	 -7.89591 	 91.1493 	 
C 	 1.52811 	 -7.5396 	 93.2589 	 
H 	 0.53019 	 -7.69122 	 93.4014 	 
H 	 1.83398 	 -6.5005 	 93.6101 	 
C 	 2.25918 	 -8.65964 	 94.0979 	 
H 	 3.32882 	 -8.58222 	 93.98 	 
H 	 1.95967 	 -9.6143 	 93.6513 	 
C 	 1.9125 	 -8.65356 	 95.559 	 
H 	 2.1261 	 -9.62479 	 96.0301 	 
H 	 0.836895 	 -8.65358 	 95.7463 	 
H 	 2.43259 	 -7.86568 	 96.1002 	 
H 	 7.57972 	 -6.06127 	 91.034 	 
H 	 -0.110421 	 -7.79002 	 88.7905 	 
