34

S 	 9.40535 	 -0.46804 	 86.1168 	 
C 	 10.7113 	 0.479333 	 86.8522 	 
C 	 10.7852 	 1.7132 	 86.3509 	 
C 	 9.7747 	 1.86309 	 85.3071 	 
C 	 9.08131 	 0.725674 	 84.9159 	 
H 	 9.63733 	 2.72241 	 84.6953 	 
C 	 11.6095 	 2.88706 	 86.7761 	 
H 	 12.0974 	 2.72312 	 87.7306 	 
H 	 10.8484 	 3.67216 	 87.0278 	 
C 	 12.4919 	 3.55985 	 85.6881 	 
H 	 11.8971 	 3.67005 	 84.812 	 
H 	 12.7985 	 4.58294 	 85.9883 	 
C 	 13.705 	 2.64785 	 85.3495 	 
H 	 14.2728 	 2.2344 	 86.1438 	 
H 	 13.325 	 1.71303 	 84.9304 	 
H 	 14.3037 	 3.01661 	 84.4915 	 
S 	 6.55359 	 -0.218975 	 84.5307 	 
C 	 5.81477 	 -0.1216 	 82.97 	 
C 	 6.62224 	 0.648981 	 82.1514 	 
C 	 7.91046 	 0.944954 	 82.608 	 
C 	 8.03524 	 0.51119 	 83.9318 	 
H 	 6.30711 	 0.881659 	 81.1075 	 
C 	 8.97226 	 1.60035 	 81.7822 	 
H 	 9.36723 	 0.90575 	 81.02 	 
H 	 9.7644 	 1.75377 	 82.4212 	 
C 	 8.5285 	 2.94591 	 81.102 	 
H 	 8.36191 	 3.65961 	 81.8339 	 
H 	 7.5576 	 2.87249 	 80.5982 	 
C 	 9.5438 	 3.38708 	 80.085 	 
H 	 10.6158 	 3.45629 	 80.4603 	 
H 	 9.17102 	 4.43457 	 79.906 	 
H 	 9.51353 	 2.92246 	 79.0456 	 
H 	 11.3973 	 0.221124 	 87.6603 	 
H 	 4.77733 	 -0.421701 	 82.8103 	 
