34

S 	 22.2429 	 1.42286 	 87.2443 	 
C 	 23.919 	 1.88732 	 86.8474 	 
C 	 24.0966 	 2.35751 	 85.5397 	 
C 	 22.9181 	 2.10672 	 84.773 	 
C 	 21.8807 	 1.5599 	 85.5069 	 
H 	 22.709 	 2.30925 	 83.7053 	 
C 	 25.398 	 3.07364 	 85.09 	 
H 	 25.4855 	 3.20694 	 84.0026 	 
H 	 26.0714 	 2.28934 	 85.3401 	 
C 	 25.8319 	 4.33826 	 85.8168 	 
H 	 25.0862 	 5.16905 	 85.6266 	 
H 	 25.763 	 4.2446 	 86.9322 	 
C 	 27.2418 	 4.85036 	 85.4647 	 
H 	 27.556 	 5.60147 	 86.2425 	 
H 	 28.0103 	 4.03682 	 85.4727 	 
H 	 27.2847 	 5.36509 	 84.4717 	 
S 	 19.6905 	 0.00432181 	 86.0764 	 
C 	 18.3442 	 -0.346484 	 84.9769 	 
C 	 18.6439 	 0.27904 	 83.8091 	 
C 	 19.8649 	 1.06224 	 83.8127 	 
C 	 20.6166 	 1.02004 	 85.0112 	 
H 	 17.9339 	 0.199614 	 83.0198 	 
C 	 20.1734 	 2.04224 	 82.6538 	 
H 	 20.6974 	 1.60022 	 81.8616 	 
H 	 20.9449 	 2.83415 	 82.8906 	 
C 	 19.064 	 2.77602 	 82 	 
H 	 18.6377 	 3.49458 	 82.6335 	 
H 	 18.3188 	 2.11999 	 81.7832 	 
C 	 19.4431 	 3.60244 	 80.8055 	 
H 	 20.0595 	 3.09747 	 80.0479 	 
H 	 19.8161 	 4.56986 	 81.1124 	 
H 	 18.5285 	 3.73145 	 80.3033 	 
H 	 24.6981 	 1.9092 	 87.5999 	 
H 	 17.5021 	 -0.970675 	 85.2044 	 
