34

S 	 -76.8076 	 48.1465 	 124.985 	 
C 	 -78.436 	 48.6473 	 125.371 	 
C 	 -79.2088 	 48.9853 	 124.253 	 
C 	 -78.4147 	 48.9683 	 123.047 	 
C 	 -77.1511 	 48.4716 	 123.31 	 
H 	 -78.7975 	 49.2399 	 122.023 	 
C 	 -80.687 	 49.322 	 124.344 	 
H 	 -80.6738 	 50.3146 	 124.394 	 
H 	 -81.2157 	 49.0364 	 125.299 	 
C 	 -81.6704 	 48.7254 	 123.3 	 
H 	 -82.7031 	 48.8491 	 123.684 	 
H 	 -81.6941 	 49.2537 	 122.359 	 
C 	 -81.4877 	 47.2455 	 123.051 	 
H 	 -80.469 	 47.1567 	 122.54 	 
H 	 -81.4882 	 46.777 	 123.997 	 
H 	 -82.238 	 46.7556 	 122.387 	 
S 	 -75.1519 	 49.4855 	 121.76 	 
C 	 -74.165 	 48.414 	 120.801 	 
C 	 -74.544 	 47.1004 	 120.977 	 
C 	 -75.7156 	 46.9548 	 121.773 	 
C 	 -76.1307 	 48.1085 	 122.342 	 
H 	 -74.0182 	 46.368 	 120.416 	 
C 	 -76.1159 	 45.4949 	 122.084 	 
H 	 -75.4725 	 44.8348 	 121.553 	 
H 	 -77.0172 	 45.2923 	 121.505 	 
C 	 -76.2896 	 45.0852 	 123.576 	 
H 	 -77.1295 	 45.4861 	 124.131 	 
H 	 -75.4542 	 45.4481 	 124.212 	 
C 	 -76.4646 	 43.5809 	 123.643 	 
H 	 -76.339 	 43.1825 	 124.699 	 
H 	 -75.771 	 43.0923 	 123.009 	 
H 	 -77.495 	 43.323 	 123.447 	 
H 	 -78.8616 	 48.3716 	 126.29 	 
H 	 -73.3826 	 48.7763 	 120.149 	 
