34

S 	 -42.0925 	 27.4114 	 86.2459 	 
C 	 -41.9485 	 28.4775 	 87.6602 	 
C 	 -41.1742 	 29.5646 	 87.3683 	 
C 	 -40.7153 	 29.6593 	 86.0341 	 
C 	 -41.0244 	 28.5068 	 85.2927 	 
H 	 -40.1177 	 30.4709 	 85.4937 	 
C 	 -40.9915 	 30.7472 	 88.2902 	 
H 	 -41.6031 	 31.4937 	 87.6992 	 
H 	 -39.9785 	 31.1907 	 88.193 	 
C 	 -41.4824 	 30.6373 	 89.7692 	 
H 	 -42.5368 	 30.3642 	 89.7636 	 
H 	 -40.9637 	 29.7332 	 90.2466 	 
C 	 -41.0722 	 31.9125 	 90.5485 	 
H 	 -41.1167 	 31.6355 	 91.6089 	 
H 	 -40.0537 	 32.2058 	 90.4 	 
H 	 -41.7021 	 32.7656 	 90.4425 	 
S 	 -41.9777 	 27.2692 	 82.9653 	 
C 	 -40.9435 	 27.0704 	 81.6242 	 
C 	 -39.6719 	 27.6031 	 81.8486 	 
C 	 -39.5752 	 28.2382 	 83.1256 	 
C 	 -40.7734 	 28.1884 	 83.841 	 
H 	 -38.9459 	 27.4548 	 81.0086 	 
C 	 -38.2466 	 28.8186 	 83.5476 	 
H 	 -37.5901 	 28.0111 	 83.1861 	 
H 	 -38.1946 	 28.7643 	 84.6593 	 
C 	 -37.9701 	 30.2427 	 83.0684 	 
H 	 -36.9876 	 30.4375 	 83.4399 	 
H 	 -38.6695 	 30.8692 	 83.5711 	 
C 	 -38.0033 	 30.4372 	 81.5163 	 
H 	 -37.2709 	 31.2589 	 81.407 	 
H 	 -38.8772 	 30.7617 	 81.0317 	 
H 	 -37.5275 	 29.633 	 80.9032 	 
H 	 -42.3089 	 28.2527 	 88.581 	 
H 	 -41.2673 	 26.7192 	 80.6924 	 
