34

S 	 -47.3805 	 62.2244 	 141.117 	 
C 	 -46.692 	 60.6354 	 141.337 	 
C 	 -47.3958 	 59.8458 	 142.237 	 
C 	 -48.3124 	 60.7294 	 142.966 	 
C 	 -48.3326 	 62.0305 	 142.581 	 
H 	 -48.857 	 60.3639 	 143.879 	 
C 	 -46.9952 	 58.412 	 142.703 	 
H 	 -47.5319 	 57.6484 	 142.131 	 
H 	 -47.4662 	 58.3533 	 143.684 	 
C 	 -45.5103 	 58.1667 	 142.974 	 
H 	 -44.9573 	 58.2027 	 142.007 	 
H 	 -45.2679 	 58.9658 	 143.669 	 
C 	 -45.2504 	 56.7038 	 143.517 	 
H 	 -45.9963 	 56.3335 	 144.332 	 
H 	 -45.3638 	 55.8962 	 142.681 	 
H 	 -44.3594 	 56.4531 	 143.961 	 
S 	 -48.2196 	 64.6513 	 143.439 	 
C 	 -49.6304 	 65.4575 	 143.983 	 
C 	 -50.7199 	 64.5996 	 143.903 	 
C 	 -50.4403 	 63.2511 	 143.625 	 
C 	 -49.0994 	 63.1127 	 143.141 	 
H 	 -51.7091 	 64.9437 	 144.224 	 
C 	 -51.5414 	 62.1514 	 143.73 	 
H 	 -52.3903 	 62.5473 	 144.306 	 
H 	 -51.1183 	 61.2684 	 144.247 	 
C 	 -51.9853 	 61.5349 	 142.375 	 
H 	 -51.1977 	 60.7812 	 142.048 	 
H 	 -52.0838 	 62.3569 	 141.595 	 
C 	 -53.3301 	 60.7842 	 142.636 	 
H 	 -53.3654 	 60.2883 	 143.668 	 
H 	 -53.644 	 60.0778 	 141.853 	 
H 	 -54.2015 	 61.4839 	 142.663 	 
H 	 -45.8826 	 60.2404 	 140.672 	 
H 	 -49.6718 	 66.5004 	 144.143 	 
