34

S 	 -41.1216 	 19.2889 	 84.3616 	 
C 	 -41.5335 	 18.0224 	 83.2657 	 
C 	 -41.4134 	 18.4383 	 81.9481 	 
C 	 -41.2228 	 19.7943 	 81.8876 	 
C 	 -41.0979 	 20.4337 	 83.128 	 
H 	 -41.0552 	 20.3191 	 80.9758 	 
C 	 -41.5082 	 17.4373 	 80.7817 	 
H 	 -40.8503 	 16.5834 	 81.106 	 
H 	 -40.9249 	 17.7356 	 79.9336 	 
C 	 -42.9165 	 16.9288 	 80.5022 	 
H 	 -43.0637 	 16.6614 	 79.4383 	 
H 	 -42.964 	 15.9699 	 81.0237 	 
C 	 -44.0013 	 17.8932 	 80.7578 	 
H 	 -43.928 	 18.2135 	 81.8344 	 
H 	 -43.9248 	 18.7946 	 80.1214 	 
H 	 -44.9523 	 17.3857 	 80.7267 	 
S 	 -39.1029 	 22.2385 	 83.4894 	 
C 	 -39.3952 	 23.9472 	 83.457 	 
C 	 -40.7469 	 24.1535 	 83.2878 	 
C 	 -41.4922 	 22.9584 	 83.1325 	 
C 	 -40.8012 	 21.8089 	 83.3076 	 
H 	 -41.1144 	 25.1072 	 83.1298 	 
C 	 -42.961 	 23.0466 	 82.7667 	 
H 	 -43.1902 	 22.1735 	 82.1223 	 
H 	 -43.0943 	 23.8485 	 82.0329 	 
C 	 -43.9574 	 23.1101 	 83.9407 	 
H 	 -43.806 	 22.2477 	 84.5906 	 
H 	 -45.0115 	 22.922 	 83.6065 	 
C 	 -43.7806 	 24.3039 	 84.798 	 
H 	 -44.4256 	 24.4017 	 85.6236 	 
H 	 -43.9691 	 25.0258 	 84.003 	 
H 	 -42.8089 	 24.6225 	 85.235 	 
H 	 -41.7205 	 17.0078 	 83.528 	 
H 	 -38.7118 	 24.755 	 83.4707 	 
