34

S 	 -4.03448 	 -15.2217 	 84.7754 	 
C 	 -3.52136 	 -15.5974 	 86.366 	 
C 	 -4.36417 	 -14.9957 	 87.2952 	 
C 	 -5.47662 	 -14.3264 	 86.6947 	 
C 	 -5.57298 	 -14.5216 	 85.3323 	 
H 	 -6.26649 	 -13.8362 	 87.2276 	 
C 	 -4.08079 	 -14.9241 	 88.7427 	 
H 	 -3.47417 	 -14.0717 	 88.8528 	 
H 	 -3.40499 	 -15.6616 	 89.1675 	 
C 	 -5.34101 	 -14.941 	 89.67 	 
H 	 -5.99983 	 -14.1043 	 89.3757 	 
H 	 -5.93755 	 -15.7976 	 89.3461 	 
C 	 -5.11397 	 -15.0831 	 91.1732 	 
H 	 -4.80839 	 -14.1093 	 91.5942 	 
H 	 -6.00523 	 -15.2962 	 91.753 	 
H 	 -4.42553 	 -15.7409 	 91.5418 	 
S 	 -5.95342 	 -12.6261 	 83.3712 	 
C 	 -7.57554 	 -12.412 	 82.6611 	 
C 	 -8.44212 	 -13.2066 	 83.3589 	 
C 	 -7.90402 	 -14.0709 	 84.2915 	 
C 	 -6.50092 	 -13.9085 	 84.4406 	 
H 	 -9.49833 	 -13.1145 	 83.2771 	 
C 	 -8.72468 	 -15.1536 	 85.0101 	 
H 	 -9.42947 	 -14.7044 	 85.7915 	 
H 	 -8.06689 	 -15.7829 	 85.7154 	 
C 	 -9.53655 	 -16.0896 	 84.1273 	 
H 	 -9.07439 	 -16.3604 	 83.1498 	 
H 	 -10.4585 	 -15.5972 	 83.9292 	 
C 	 -9.92155 	 -17.3275 	 84.9593 	 
H 	 -10.3789 	 -16.9644 	 85.9033 	 
H 	 -9.13783 	 -17.935 	 85.3565 	 
H 	 -10.6979 	 -17.9147 	 84.4148 	 
H 	 -2.60821 	 -16.0533 	 86.5693 	 
H 	 -7.88544 	 -11.6416 	 81.9186 	 
