34

S 	 -100.214 	 54.0228 	 120.111 	 
C 	 -100.319 	 54.577 	 118.446 	 
C 	 -101.311 	 55.4687 	 118.367 	 
C 	 -102.094 	 55.59 	 119.56 	 
C 	 -101.732 	 54.6975 	 120.525 	 
H 	 -102.978 	 56.2749 	 119.772 	 
C 	 -101.566 	 56.2881 	 117.09 	 
H 	 -102.571 	 56.542 	 116.914 	 
H 	 -101.217 	 55.7596 	 116.17 	 
C 	 -100.853 	 57.6675 	 117.175 	 
H 	 -101.323 	 58.4499 	 117.747 	 
H 	 -99.8739 	 57.4531 	 117.582 	 
C 	 -100.562 	 58.2089 	 115.78 	 
H 	 -100.094 	 59.2168 	 115.779 	 
H 	 -99.8983 	 57.5493 	 115.218 	 
H 	 -101.389 	 58.3656 	 115.121 	 
S 	 -101.409 	 54.6501 	 123.211 	 
C 	 -102.743 	 54.1719 	 124.249 	 
C 	 -103.893 	 54.057 	 123.521 	 
C 	 -103.684 	 54.2287 	 122.115 	 
C 	 -102.384 	 54.4818 	 121.784 	 
H 	 -104.79 	 53.8692 	 124.112 	 
C 	 -104.848 	 54.1037 	 121.174 	 
H 	 -104.917 	 53.0673 	 120.862 	 
H 	 -104.657 	 54.6218 	 120.263 	 
C 	 -106.233 	 54.6348 	 121.684 	 
H 	 -106.663 	 54.1645 	 122.534 	 
H 	 -106.923 	 54.458 	 120.841 	 
C 	 -106.242 	 56.0562 	 122.148 	 
H 	 -107.256 	 56.3953 	 122.317 	 
H 	 -105.867 	 56.6155 	 121.372 	 
H 	 -105.709 	 56.3826 	 123.046 	 
H 	 -99.7228 	 54.5692 	 117.562 	 
H 	 -102.762 	 54.1252 	 125.347 	 
