34

S 	 -13.5402 	 -2.61618 	 84.0766 	 
C 	 -12.4464 	 -2.44142 	 82.7595 	 
C 	 -11.8456 	 -3.63645 	 82.443 	 
C 	 -12.4119 	 -4.71968 	 83.236 	 
C 	 -13.3694 	 -4.3174 	 84.1341 	 
H 	 -12.257 	 -5.76559 	 83.1318 	 
C 	 -10.7038 	 -3.77159 	 81.4766 	 
H 	 -9.89105 	 -4.50235 	 81.6782 	 
H 	 -10.299 	 -2.76483 	 81.4684 	 
C 	 -11.1844 	 -3.97915 	 80.015 	 
H 	 -12.2084 	 -3.57575 	 79.8604 	 
H 	 -10.4965 	 -3.43812 	 79.3446 	 
C 	 -11.0507 	 -5.46183 	 79.4996 	 
H 	 -11.9381 	 -6.01366 	 79.7644 	 
H 	 -10.9132 	 -5.48322 	 78.3931 	 
H 	 -10.0861 	 -5.86114 	 79.7369 	 
S 	 -15.0879 	 -6.48082 	 84.3945 	 
C 	 -15.7456 	 -6.86781 	 85.9499 	 
C 	 -15.2962 	 -5.97506 	 87.0085 	 
C 	 -14.4323 	 -4.97603 	 86.4216 	 
C 	 -14.1631 	 -5.18727 	 85.0282 	 
H 	 -15.6886 	 -6.10517 	 88.0329 	 
C 	 -13.9119 	 -3.75326 	 87.2243 	 
H 	 -13.0575 	 -3.34834 	 86.6941 	 
H 	 -13.5859 	 -3.96419 	 88.1738 	 
C 	 -14.9196 	 -2.64979 	 87.5051 	 
H 	 -15.6481 	 -2.9747 	 88.1987 	 
H 	 -15.4435 	 -2.32136 	 86.6624 	 
C 	 -14.1777 	 -1.45975 	 88.1978 	 
H 	 -14.7072 	 -0.553547 	 88.1348 	 
H 	 -13.2551 	 -1.12135 	 87.7173 	 
H 	 -14.0157 	 -1.56827 	 89.3166 	 
H 	 -12.1635 	 -1.49434 	 82.3039 	 
H 	 -16.3057 	 -7.66755 	 86.265 	 
