34

S 	 8.42448 	 -28.9516 	 81.3376 	 
C 	 8.61064 	 -29.1249 	 83.0896 	 
C 	 8.55233 	 -27.9548 	 83.7651 	 
C 	 8.33137 	 -26.8338 	 82.8967 	 
C 	 8.29339 	 -27.1707 	 81.5681 	 
H 	 8.35813 	 -25.8312 	 83.1706 	 
C 	 8.88957 	 -27.7615 	 85.2312 	 
H 	 9.93446 	 -27.4909 	 85.3142 	 
H 	 8.68332 	 -28.7503 	 85.7543 	 
C 	 8.15135 	 -26.6917 	 86.0034 	 
H 	 8.46474 	 -26.6108 	 86.9866 	 
H 	 8.46875 	 -25.7314 	 85.6018 	 
C 	 6.70376 	 -26.8385 	 85.9771 	 
H 	 6.45733 	 -27.8 	 86.4637 	 
H 	 6.19432 	 -26.0234 	 86.4867 	 
H 	 6.41085 	 -26.8662 	 84.9462 	 
S 	 6.69333 	 -25.6182 	 80.0753 	 
C 	 7.29567 	 -24.8107 	 78.6285 	 
C 	 8.67139 	 -24.9673 	 78.5685 	 
C 	 9.19386 	 -25.8886 	 79.5236 	 
C 	 8.24984 	 -26.2792 	 80.4594 	 
H 	 9.31333 	 -24.501 	 77.8553 	 
C 	 10.6245 	 -26.3957 	 79.3815 	 
H 	 10.9517 	 -26.4749 	 78.3093 	 
H 	 10.6302 	 -27.4568 	 79.5934 	 
C 	 11.7044 	 -25.6798 	 80.2122 	 
H 	 11.1652 	 -25.3645 	 81.0933 	 
H 	 11.8879 	 -24.738 	 79.7308 	 
C 	 12.9881 	 -26.411 	 80.5766 	 
H 	 13.6319 	 -26.651 	 79.7172 	 
H 	 12.9115 	 -27.3157 	 81.1633 	 
H 	 13.5833 	 -25.7115 	 81.197 	 
H 	 8.90239 	 -30.0953 	 83.4938 	 
H 	 6.71133 	 -24.15 	 78.026 	 
