34

S 	 -100.956 	 52.2966 	 126.074 	 
C 	 -99.5157 	 51.3846 	 126.086 	 
C 	 -99.7449 	 50.0088 	 126.205 	 
C 	 -101.161 	 49.6799 	 126.369 	 
C 	 -101.985 	 50.8209 	 126.372 	 
H 	 -101.573 	 48.6782 	 126.408 	 
C 	 -98.6634 	 48.9433 	 126.255 	 
H 	 -99.0785 	 47.9488 	 126.219 	 
H 	 -98.1854 	 48.8936 	 127.232 	 
C 	 -97.6074 	 49.1259 	 125.168 	 
H 	 -98.1739 	 49.1088 	 124.276 	 
H 	 -97.2529 	 50.1505 	 125.36 	 
C 	 -96.352 	 48.2232 	 125.21 	 
H 	 -95.5422 	 48.4314 	 124.482 	 
H 	 -95.8845 	 48.003 	 126.155 	 
H 	 -96.5916 	 47.1605 	 124.99 	 
S 	 -104.274 	 51.9126 	 125.415 	 
C 	 -105.779 	 51.5779 	 126.211 	 
C 	 -105.621 	 50.8058 	 127.327 	 
C 	 -104.216 	 50.4186 	 127.542 	 
C 	 -103.385 	 50.9946 	 126.569 	 
H 	 -106.49 	 50.5427 	 127.847 	 
C 	 -103.759 	 49.514 	 128.671 	 
H 	 -104.199 	 49.7967 	 129.623 	 
H 	 -102.689 	 49.6598 	 128.811 	 
C 	 -104.069 	 48.066 	 128.54 	 
H 	 -103.69 	 47.6782 	 127.549 	 
H 	 -105.146 	 47.8736 	 128.501 	 
C 	 -103.623 	 47.0625 	 129.69 	 
H 	 -104.044 	 46.0224 	 129.647 	 
H 	 -104.165 	 47.2954 	 130.618 	 
H 	 -102.51 	 47.033 	 129.836 	 
H 	 -98.553 	 51.8683 	 125.938 	 
H 	 -106.686 	 52.0232 	 125.848 	 
