34

S 	 38.3584 	 26.5961 	 96.0274 	 
C 	 38.535 	 27.2851 	 94.4341 	 
C 	 39.7221 	 27.0142 	 93.8891 	 
C 	 40.4414 	 26.0715 	 94.6954 	 
C 	 39.7562 	 25.5129 	 95.8243 	 
H 	 41.4447 	 25.6976 	 94.4442 	 
C 	 40.2638 	 27.641 	 92.6346 	 
H 	 41.265 	 28.0616 	 92.8836 	 
H 	 39.7027 	 28.4975 	 92.2469 	 
C 	 40.4918 	 26.7275 	 91.4649 	 
H 	 39.4582 	 26.3235 	 91.3999 	 
H 	 40.7287 	 27.37 	 90.6121 	 
C 	 41.3857 	 25.541 	 91.6759 	 
H 	 42.3584 	 25.7787 	 92.0767 	 
H 	 40.9327 	 24.7572 	 92.2996 	 
H 	 41.6347 	 24.9556 	 90.7345 	 
S 	 39.866 	 24.8865 	 98.4909 	 
C 	 39.8075 	 23.2369 	 98.9428 	 
C 	 40.2941 	 22.4131 	 97.8406 	 
C 	 40.4966 	 23.19 	 96.6264 	 
C 	 40.0712 	 24.4796 	 96.7761 	 
H 	 40.4791 	 21.3789 	 97.9647 	 
C 	 40.8424 	 22.6006 	 95.2775 	 
H 	 41.3603 	 21.6495 	 95.4583 	 
H 	 41.46 	 23.3315 	 94.7777 	 
C 	 39.5785 	 22.3859 	 94.4341 	 
H 	 39.7046 	 21.9895 	 93.4379 	 
H 	 39.1921 	 23.3729 	 94.1896 	 
C 	 38.4228 	 21.5163 	 95.0159 	 
H 	 37.5308 	 21.4918 	 94.3355 	 
H 	 38.2247 	 21.9389 	 96.0145 	 
H 	 38.6538 	 20.4901 	 95.2757 	 
H 	 37.8074 	 28.0004 	 94.127 	 
H 	 39.6155 	 22.865 	 99.9299 	 
