34

S 	 43.4257 	 17.6927 	 86.5514 	 
C 	 41.8167 	 18.2024 	 87.1453 	 
C 	 40.8432 	 17.8008 	 86.2855 	 
C 	 41.3127 	 16.9813 	 85.1805 	 
C 	 42.6516 	 16.6498 	 85.3025 	 
H 	 40.8117 	 16.5514 	 84.3008 	 
C 	 39.4558 	 18.2984 	 86.2244 	 
H 	 38.9986 	 18.1932 	 87.1915 	 
H 	 38.8144 	 17.6936 	 85.493 	 
C 	 39.228 	 19.7156 	 85.7197 	 
H 	 39.672 	 20.4087 	 86.4808 	 
H 	 39.8121 	 19.8041 	 84.8085 	 
C 	 37.7871 	 20.0422 	 85.4225 	 
H 	 37.164 	 19.8953 	 86.3064 	 
H 	 37.7561 	 21.0964 	 85.1643 	 
H 	 37.3699 	 19.4865 	 84.6033 	 
S 	 44.6123 	 16.6425 	 83.4285 	 
C 	 45.093 	 15.2072 	 82.5586 	 
C 	 44.1797 	 14.2431 	 82.8371 	 
C 	 43.1261 	 14.6281 	 83.7082 	 
C 	 43.3578 	 15.8241 	 84.3437 	 
H 	 44.3422 	 13.3496 	 82.3075 	 
C 	 42.173 	 13.53 	 84.2154 	 
H 	 42.1111 	 12.7445 	 83.4542 	 
H 	 41.157 	 13.9135 	 84.3997 	 
C 	 42.6781 	 12.8525 	 85.5126 	 
H 	 42.9925 	 13.6239 	 86.2054 	 
H 	 43.6185 	 12.3249 	 85.2591 	 
C 	 41.5615 	 11.8634 	 86.0556 	 
H 	 41.971 	 11.2308 	 86.8614 	 
H 	 41.2421 	 11.1516 	 85.2783 	 
H 	 40.6748 	 12.356 	 86.4968 	 
H 	 41.5378 	 19.1052 	 87.7676 	 
H 	 45.902 	 15.2826 	 81.9501 	 
