34

S 	 -108.842 	 41.3247 	 133.587 	 
C 	 -108.799 	 41.3744 	 135.356 	 
C 	 -109.814 	 42.1689 	 135.862 	 
C 	 -110.565 	 42.8051 	 134.835 	 
C 	 -110.187 	 42.4422 	 133.511 	 
H 	 -111.345 	 43.5495 	 134.935 	 
C 	 -109.997 	 42.5969 	 137.331 	 
H 	 -110.03 	 41.6948 	 137.942 	 
H 	 -110.907 	 43.0847 	 137.647 	 
C 	 -108.807 	 43.3597 	 137.94 	 
H 	 -109.099 	 43.3109 	 138.99 	 
H 	 -107.957 	 42.7185 	 137.774 	 
C 	 -108.6 	 44.7639 	 137.564 	 
H 	 -107.583 	 45.1521 	 137.885 	 
H 	 -108.692 	 44.96 	 136.49 	 
H 	 -109.28 	 45.4634 	 138.108 	 
S 	 -109.706 	 43.6845 	 131.102 	 
C 	 -111.091 	 44.2377 	 130.158 	 
C 	 -112.259 	 43.6824 	 130.602 	 
C 	 -112.119 	 42.9412 	 131.847 	 
C 	 -110.782 	 42.9904 	 132.285 	 
H 	 -113.149 	 43.8571 	 130.04 	 
C 	 -113.268 	 42.2373 	 132.595 	 
H 	 -112.815 	 41.8138 	 133.485 	 
H 	 -113.646 	 41.4823 	 131.956 	 
C 	 -114.513 	 43.0389 	 133.103 	 
H 	 -114.927 	 43.5973 	 132.225 	 
H 	 -114.184 	 43.8035 	 133.902 	 
C 	 -115.599 	 42.075 	 133.628 	 
H 	 -116.53 	 42.6262 	 133.872 	 
H 	 -115.302 	 41.4876 	 134.413 	 
H 	 -115.894 	 41.4703 	 132.777 	 
H 	 -107.982 	 41.0062 	 135.975 	 
H 	 -110.985 	 44.8291 	 129.282 	 
