34

S 	 -18.0542 	 -6.99864 	 81.2816 	 
C 	 -17.1458 	 -7.52903 	 79.8539 	 
C 	 -15.7839 	 -7.67138 	 80.2139 	 
C 	 -15.5351 	 -7.11868 	 81.5279 	 
C 	 -16.6815 	 -6.72264 	 82.2853 	 
H 	 -14.5989 	 -7.03555 	 81.9891 	 
C 	 -14.6964 	 -8.36199 	 79.4007 	 
H 	 -15.117 	 -9.18143 	 78.8277 	 
H 	 -13.8955 	 -8.7656 	 80.0173 	 
C 	 -13.8454 	 -7.37909 	 78.5409 	 
H 	 -14.3942 	 -6.93333 	 77.7343 	 
H 	 -13.5467 	 -6.5222 	 79.1825 	 
C 	 -12.4945 	 -8.01731 	 78.1226 	 
H 	 -11.8046 	 -7.49554 	 77.5183 	 
H 	 -11.8542 	 -8.27411 	 78.9759 	 
H 	 -12.5691 	 -8.84847 	 77.5881 	 
S 	 -15.8407 	 -7.20785 	 84.8653 	 
C 	 -16.4718 	 -6.25566 	 86.1181 	 
C 	 -17.2256 	 -5.16241 	 85.66 	 
C 	 -17.3304 	 -5.0858 	 84.2235 	 
C 	 -16.6735 	 -6.20813 	 83.6568 	 
H 	 -17.6185 	 -4.51878 	 86.3718 	 
C 	 -18.2526 	 -4.07134 	 83.536 	 
H 	 -19.3229 	 -4.18224 	 83.8241 	 
H 	 -18.2411 	 -4.27515 	 82.4305 	 
C 	 -17.7452 	 -2.58038 	 83.6487 	 
H 	 -16.6836 	 -2.46716 	 83.2395 	 
H 	 -17.7931 	 -2.29048 	 84.7214 	 
C 	 -18.6994 	 -1.59197 	 83.0016 	 
H 	 -18.5485 	 -0.518944 	 83.2101 	 
H 	 -19.6792 	 -1.81841 	 83.3369 	 
H 	 -18.7292 	 -1.71414 	 81.8939 	 
H 	 -17.5479 	 -7.68005 	 78.8485 	 
H 	 -16.271 	 -6.30133 	 87.2211 	 
