34

S 	 -31.2605 	 39.9959 	 100.044 	 
C 	 -31.2914 	 38.5461 	 98.9727 	 
C 	 -30.7378 	 38.7161 	 97.7023 	 
C 	 -30.2193 	 40.0581 	 97.626 	 
C 	 -30.3698 	 40.8951 	 98.7494 	 
H 	 -29.621 	 40.4603 	 96.7976 	 
C 	 -30.3861 	 37.6006 	 96.7811 	 
H 	 -30.2423 	 36.7065 	 97.3979 	 
H 	 -29.4061 	 37.6805 	 96.3237 	 
C 	 -31.381 	 37.1626 	 95.6215 	 
H 	 -32.349 	 37.0969 	 96.0846 	 
H 	 -31.4977 	 37.9314 	 94.8784 	 
C 	 -31.0436 	 35.8288 	 95.1146 	 
H 	 -31.5587 	 35.6406 	 94.1683 	 
H 	 -30.0197 	 35.8476 	 94.8325 	 
H 	 -31.0868 	 35.0034 	 95.8448 	 
S 	 -28.2645 	 42.5064 	 98.4976 	 
C 	 -28.3881 	 44.1111 	 99.1542 	 
C 	 -29.547 	 44.3069 	 99.8701 	 
C 	 -30.4627 	 43.2204 	 99.8134 	 
C 	 -29.8601 	 42.2173 	 99.0785 	 
H 	 -29.8121 	 45.2053 	 100.401 	 
C 	 -31.7448 	 43.1865 	 100.626 	 
H 	 -31.6726 	 44.0985 	 101.233 	 
H 	 -31.8577 	 42.3814 	 101.337 	 
C 	 -33.0118 	 43.1577 	 99.7403 	 
H 	 -33.8362 	 43.1925 	 100.437 	 
H 	 -33.1272 	 42.2974 	 99.0922 	 
C 	 -33.1175 	 44.3766 	 98.7658 	 
H 	 -34.1242 	 44.427 	 98.3637 	 
H 	 -32.5044 	 44.3018 	 97.9027 	 
H 	 -32.9703 	 45.3715 	 99.1628 	 
H 	 -31.6641 	 37.6716 	 99.4492 	 
H 	 -27.674 	 44.8493 	 99.2147 	 
