34

S 	 -31.453 	 69.3523 	 108.008 	 
C 	 -33.1104 	 69.0375 	 107.924 	 
C 	 -33.8479 	 70.2184 	 107.869 	 
C 	 -33.0445 	 71.4118 	 107.835 	 
C 	 -31.7095 	 71.108 	 107.982 	 
H 	 -33.4489 	 72.4034 	 107.767 	 
C 	 -35.3387 	 70.399 	 107.599 	 
H 	 -35.6087 	 71.2831 	 108.069 	 
H 	 -35.9192 	 69.528 	 108.025 	 
C 	 -35.8036 	 70.4883 	 106.122 	 
H 	 -35.2527 	 71.3443 	 105.61 	 
H 	 -35.4436 	 69.5529 	 105.643 	 
C 	 -37.417 	 70.6501 	 105.989 	 
H 	 -37.8359 	 71.5715 	 106.222 	 
H 	 -37.8584 	 70.411 	 105.004 	 
H 	 -37.8667 	 69.8958 	 106.651 	 
S 	 -29.932 	 72.0582 	 109.784 	 
C 	 -28.9622 	 73.4768 	 109.379 	 
C 	 -29.1783 	 73.9132 	 108.058 	 
C 	 -30.1504 	 73.1218 	 107.407 	 
C 	 -30.6399 	 72.0721 	 108.197 	 
H 	 -28.6573 	 74.7808 	 107.7 	 
C 	 -30.6971 	 73.3836 	 106.047 	 
H 	 -30.897 	 72.433 	 105.55 	 
H 	 -29.92 	 73.8869 	 105.471 	 
C 	 -31.8693 	 74.4351 	 105.997 	 
H 	 -31.4134 	 75.3661 	 106.308 	 
H 	 -32.6449 	 74.1135 	 106.705 	 
C 	 -32.4616 	 74.6357 	 104.528 	 
H 	 -31.6864 	 74.9428 	 103.842 	 
H 	 -33.1714 	 75.4913 	 104.499 	 
H 	 -32.8518 	 73.7012 	 104.247 	 
H 	 -33.5892 	 68.117 	 107.793 	 
H 	 -28.2982 	 73.9913 	 110.057 	 
