34

S 	 43.9753 	 22.8641 	 83.7268 	 
C 	 44.7425 	 24.0618 	 84.6965 	 
C 	 44.3631 	 23.8946 	 86.0326 	 
C 	 43.4574 	 22.826 	 86.2447 	 
C 	 43.1037 	 22.157 	 85.076 	 
H 	 43.0351 	 22.5047 	 87.1581 	 
C 	 44.7843 	 24.8467 	 87.1143 	 
H 	 45.6879 	 25.447 	 86.9374 	 
H 	 45.0302 	 24.109 	 87.8959 	 
C 	 43.5933 	 25.6653 	 87.7078 	 
H 	 43.1067 	 26.4078 	 87.0004 	 
H 	 42.7207 	 25.0441 	 87.8037 	 
C 	 43.8778 	 26.4854 	 88.9682 	 
H 	 44.1919 	 25.8539 	 89.7492 	 
H 	 44.735 	 27.0705 	 88.7561 	 
H 	 43.0552 	 27.1907 	 89.2601 	 
S 	 42.6935 	 20.0147 	 83.4225 	 
C 	 41.2985 	 19.049 	 83.708 	 
C 	 40.5817 	 19.4048 	 84.8094 	 
C 	 41.1601 	 20.4846 	 85.5046 	 
C 	 42.2381 	 20.9804 	 84.8186 	 
H 	 39.7433 	 18.8707 	 85.1677 	 
C 	 40.7036 	 20.8581 	 86.9189 	 
H 	 39.5909 	 20.9767 	 86.7599 	 
H 	 41.1293 	 21.785 	 87.1767 	 
C 	 41.0798 	 19.894 	 88.0094 	 
H 	 42.2033 	 19.9452 	 88.0095 	 
H 	 40.7751 	 18.8967 	 87.7625 	 
C 	 40.6027 	 20.0909 	 89.4953 	 
H 	 39.5143 	 20.2261 	 89.5007 	 
H 	 41.1134 	 20.8849 	 89.9599 	 
H 	 40.9179 	 19.2389 	 90.1202 	 
H 	 45.5585 	 24.6742 	 84.3911 	 
H 	 41.0877 	 18.1135 	 83.2068 	 
