34

S 	 -43.2684 	 55.4458 	 106.998 	 
C 	 -41.7311 	 54.5761 	 106.931 	 
C 	 -41.3223 	 54.2202 	 108.207 	 
C 	 -42.2941 	 54.6186 	 109.212 	 
C 	 -43.3155 	 55.3823 	 108.754 	 
H 	 -42.2655 	 54.447 	 110.305 	 
C 	 -40.1476 	 53.3793 	 108.491 	 
H 	 -40.1239 	 52.5061 	 107.756 	 
H 	 -40.2176 	 53.0201 	 109.488 	 
C 	 -38.7745 	 53.9949 	 108.506 	 
H 	 -38.8837 	 55.0586 	 108.793 	 
H 	 -38.0177 	 53.6158 	 109.174 	 
C 	 -38.2143 	 53.9964 	 107.055 	 
H 	 -38.4337 	 53.0659 	 106.473 	 
H 	 -38.5991 	 54.7375 	 106.396 	 
H 	 -37.1192 	 53.9724 	 107.032 	 
S 	 -45.837 	 55.2088 	 109.677 	 
C 	 -46.6157 	 56.4103 	 110.693 	 
C 	 -45.7588 	 57.3576 	 110.953 	 
C 	 -44.3663 	 57.0569 	 110.493 	 
C 	 -44.3259 	 56.0147 	 109.558 	 
H 	 -46.0541 	 58.196 	 111.539 	 
C 	 -43.2676 	 58.1058 	 110.515 	 
H 	 -42.352 	 57.6292 	 110.839 	 
H 	 -43.5888 	 58.897 	 111.234 	 
C 	 -42.9248 	 58.81 	 109.153 	 
H 	 -42.4951 	 58.1077 	 108.426 	 
H 	 -42.175 	 59.5178 	 109.468 	 
C 	 -44.1055 	 59.5944 	 108.594 	 
H 	 -43.7334 	 60.3372 	 107.852 	 
H 	 -44.7051 	 60.2469 	 109.286 	 
H 	 -44.6084 	 58.8879 	 107.924 	 
H 	 -41.2738 	 54.1553 	 106.047 	 
H 	 -47.6717 	 56.2723 	 110.984 	 
