34

S 	 -93.4479 	 53.2855 	 126.625 	 
C 	 -92.4085 	 52.1462 	 125.839 	 
C 	 -92.879 	 51.8154 	 124.561 	 
C 	 -94.2286 	 52.3067 	 124.357 	 
C 	 -94.6682 	 53.0688 	 125.373 	 
H 	 -94.8414 	 52.0708 	 123.508 	 
C 	 -92.1488 	 51.1517 	 123.394 	 
H 	 -92.8631 	 50.9962 	 122.5 	 
H 	 -91.91 	 50.1112 	 123.715 	 
C 	 -90.9149 	 51.8906 	 122.995 	 
H 	 -90.213 	 52.0098 	 123.764 	 
H 	 -90.2932 	 51.2062 	 122.384 	 
C 	 -91.2984 	 53.1858 	 122.367 	 
H 	 -92.1588 	 53.0102 	 121.698 	 
H 	 -91.5159 	 53.9843 	 123.049 	 
H 	 -90.3893 	 53.5734 	 121.826 	 
S 	 -96.8827 	 53.5201 	 126.959 	 
C 	 -98.1469 	 54.5603 	 126.378 	 
C 	 -98.0188 	 54.8158 	 125.016 	 
C 	 -96.7434 	 54.3726 	 124.562 	 
C 	 -95.9679 	 53.7064 	 125.504 	 
H 	 -98.7829 	 55.3452 	 124.515 	 
C 	 -96.3677 	 54.6051 	 123.155 	 
H 	 -95.3842 	 54.2537 	 122.851 	 
H 	 -96.4682 	 55.7157 	 123.05 	 
C 	 -97.2841 	 53.8933 	 122.131 	 
H 	 -98.3394 	 54.0204 	 122.291 	 
H 	 -97.0682 	 52.825 	 122.105 	 
C 	 -97.1011 	 54.2936 	 120.726 	 
H 	 -97.3454 	 55.326 	 120.639 	 
H 	 -97.7747 	 53.8534 	 120.032 	 
H 	 -96.0524 	 54.2221 	 120.447 	 
H 	 -91.4969 	 51.8174 	 126.178 	 
H 	 -99.0222 	 54.8412 	 126.992 	 
