34

S 	 26.9482 	 5.24284 	 74.3918 	 
C 	 27.5483 	 3.59458 	 74.3826 	 
C 	 27.5332 	 3.01759 	 75.6713 	 
C 	 27.2461 	 4.03726 	 76.6199 	 
C 	 27.015 	 5.3014 	 76.149 	 
H 	 27.0833 	 3.88357 	 77.6955 	 
C 	 27.8469 	 1.60087 	 76.0221 	 
H 	 28.8835 	 1.51934 	 76.2667 	 
H 	 27.6451 	 1.0764 	 75.0905 	 
C 	 27.0223 	 0.87962 	 77.105 	 
H 	 27.6222 	 -0.033064 	 77.4001 	 
H 	 26.8908 	 1.59276 	 77.9342 	 
C 	 25.5916 	 0.431888 	 76.8729 	 
H 	 25.4406 	 -0.560755 	 76.4889 	 
H 	 25.0047 	 0.455324 	 77.751 	 
H 	 25.0687 	 1.10834 	 76.2282 	 
S 	 24.828 	 6.70347 	 76.8319 	 
C 	 24.8251 	 7.82053 	 78.1749 	 
C 	 26.0406 	 7.73545 	 78.8369 	 
C 	 26.9915 	 6.89199 	 78.1711 	 
C 	 26.5494 	 6.42188 	 76.9484 	 
H 	 26.1638 	 8.21476 	 79.7877 	 
C 	 28.342 	 6.53614 	 78.7979 	 
H 	 29.1125 	 6.86696 	 78.1392 	 
H 	 28.4554 	 5.42189 	 78.818 	 
C 	 28.5994 	 7.14977 	 80.1735 	 
H 	 27.8639 	 6.8456 	 80.9389 	 
H 	 28.5057 	 8.23766 	 80.2423 	 
C 	 29.9863 	 6.71583 	 80.6378 	 
H 	 30.2127 	 7.02881 	 81.6677 	 
H 	 30.7872 	 7.20265 	 80.0305 	 
H 	 29.9868 	 5.6209 	 80.6159 	 
H 	 27.5226 	 3.01722 	 73.4566 	 
H 	 24.0031 	 8.37381 	 78.5959 	 
