34

S 	 -72.8274 	 41.5568 	 137.625 	 
C 	 -73.4465 	 40.3968 	 136.42 	 
C 	 -72.4869 	 39.4352 	 136.086 	 
C 	 -71.2743 	 39.7191 	 136.743 	 
C 	 -71.2852 	 40.8014 	 137.553 	 
H 	 -70.4124 	 39.1409 	 136.674 	 
C 	 -72.6262 	 38.1254 	 135.216 	 
H 	 -73.6715 	 37.787 	 135.344 	 
H 	 -72.0161 	 37.3619 	 135.69 	 
C 	 -72.204 	 38.2666 	 133.73 	 
H 	 -72.7086 	 39.1619 	 133.334 	 
H 	 -71.1933 	 38.602 	 133.564 	 
C 	 -72.496 	 36.9858 	 132.961 	 
H 	 -72.1111 	 36.9252 	 131.96 	 
H 	 -72.0807 	 36.1504 	 133.431 	 
H 	 -73.6224 	 36.9111 	 132.9 	 
S 	 -68.8658 	 40.1034 	 138.635 	 
C 	 -67.9594 	 41.2728 	 139.52 	 
C 	 -68.6614 	 42.4337 	 139.75 	 
C 	 -69.8729 	 42.4854 	 138.943 	 
C 	 -70.1234 	 41.2663 	 138.32 	 
H 	 -68.2949 	 43.2252 	 140.41 	 
C 	 -70.7842 	 43.7327 	 138.841 	 
H 	 -71.6483 	 43.6052 	 139.479 	 
H 	 -71.16 	 43.8012 	 137.889 	 
C 	 -70.0579 	 45.1316 	 139.183 	 
H 	 -69.305 	 45.376 	 138.376 	 
H 	 -69.5268 	 45.1346 	 140.124 	 
C 	 -71.012 	 46.3217 	 139.186 	 
H 	 -71.7175 	 46.1594 	 138.371 	 
H 	 -70.5246 	 47.2321 	 138.962 	 
H 	 -71.6031 	 46.5301 	 140.1 	 
H 	 -74.5153 	 40.3472 	 136.135 	 
H 	 -67.0839 	 41.0369 	 140.063 	 
