34

S 	 3.78003 	 -18.3692 	 83.6774 	 
C 	 3.59456 	 -19.5938 	 84.8548 	 
C 	 2.88903 	 -19.2286 	 85.9589 	 
C 	 2.62806 	 -17.8453 	 86.0053 	 
C 	 3.02513 	 -17.2265 	 84.8198 	 
H 	 2.14238 	 -17.3533 	 86.8577 	 
C 	 2.40747 	 -20.1046 	 87.1101 	 
H 	 2.01556 	 -20.9178 	 86.5781 	 
H 	 1.65376 	 -19.7803 	 87.721 	 
C 	 3.48972 	 -20.5933 	 88.0999 	 
H 	 4.0035 	 -21.5343 	 87.7732 	 
H 	 4.22385 	 -19.8178 	 88.1816 	 
C 	 2.8686 	 -20.8095 	 89.5899 	 
H 	 2.43381 	 -19.8595 	 90.0314 	 
H 	 2.08216 	 -21.5893 	 89.5284 	 
H 	 3.68909 	 -20.996 	 90.3047 	 
S 	 1.87197 	 -15.4689 	 83.0332 	 
C 	 1.72738 	 -13.7854 	 83.3687 	 
C 	 2.28056 	 -13.4851 	 84.6137 	 
C 	 2.88042 	 -14.5818 	 85.2409 	 
C 	 2.73018 	 -15.8313 	 84.5341 	 
H 	 2.25596 	 -12.4244 	 84.9989 	 
C 	 3.69808 	 -14.4539 	 86.431 	 
H 	 3.79014 	 -15.4656 	 86.9246 	 
H 	 3.11441 	 -13.8896 	 87.1146 	 
C 	 4.97999 	 -13.6299 	 86.3858 	 
H 	 4.6969 	 -12.6299 	 85.9862 	 
H 	 5.5782 	 -14.1174 	 85.685 	 
C 	 5.74453 	 -13.5873 	 87.7176 	 
H 	 6.10098 	 -14.5992 	 88.0546 	 
H 	 5.14621 	 -13.1794 	 88.5185 	 
H 	 6.60722 	 -12.9295 	 87.7 	 
H 	 3.87366 	 -20.6164 	 84.7888 	 
H 	 1.23523 	 -13.1411 	 82.7855 	 
