34

S 	 -45.8429 	 49.8534 	 103.221 	 
C 	 -45.5049 	 49.3952 	 101.504 	 
C 	 -44.6041 	 50.231 	 100.906 	 
C 	 -44.2366 	 51.2971 	 101.812 	 
C 	 -44.953 	 51.3085 	 103.007 	 
H 	 -43.5792 	 52.0895 	 101.46 	 
C 	 -44.1558 	 50.1617 	 99.495 	 
H 	 -44.6727 	 50.9523 	 99.0041 	 
H 	 -44.4729 	 49.2632 	 99.0529 	 
C 	 -42.6323 	 50.3465 	 99.33 	 
H 	 -42.2993 	 50.1942 	 98.2765 	 
H 	 -42.2627 	 51.3737 	 99.4143 	 
C 	 -41.6667 	 49.6041 	 100.243 	 
H 	 -41.6342 	 50.0934 	 101.21 	 
H 	 -41.9241 	 48.5369 	 100.426 	 
H 	 -40.5864 	 49.6096 	 99.9374 	 
S 	 -46.1917 	 53.1713 	 104.753 	 
C 	 -45.1707 	 53.9915 	 105.837 	 
C 	 -43.8787 	 53.5114 	 105.791 	 
C 	 -43.6812 	 52.4723 	 104.879 	 
C 	 -44.832 	 52.1862 	 104.19 	 
H 	 -43.0739 	 53.9959 	 106.463 	 
C 	 -42.3585 	 51.8109 	 104.628 	 
H 	 -41.6529 	 52.4769 	 104.157 	 
H 	 -42.6419 	 50.9653 	 104.09 	 
C 	 -41.8138 	 51.1644 	 105.922 	 
H 	 -42.6306 	 50.6348 	 106.428 	 
H 	 -41.6411 	 51.9838 	 106.676 	 
C 	 -40.5394 	 50.3355 	 105.593 	 
H 	 -40.5798 	 49.5819 	 104.799 	 
H 	 -40.073 	 49.782 	 106.406 	 
H 	 -39.672 	 50.9751 	 105.348 	 
H 	 -45.9389 	 48.4526 	 101.062 	 
H 	 -45.391 	 54.9837 	 106.236 	 
