34

S 	 -93.9174 	 55.2673 	 127.437 	 
C 	 -92.4847 	 55.5418 	 128.405 	 
C 	 -91.4173 	 54.7273 	 128.056 	 
C 	 -91.8925 	 53.6955 	 127.205 	 
C 	 -93.2111 	 53.8005 	 126.887 	 
H 	 -91.3021 	 52.9222 	 126.879 	 
C 	 -90.1441 	 54.4936 	 128.842 	 
H 	 -89.6015 	 55.4447 	 129.052 	 
H 	 -89.5101 	 53.9621 	 128.068 	 
C 	 -90.3066 	 53.6318 	 130.102 	 
H 	 -90.7816 	 54.2827 	 130.87 	 
H 	 -90.9914 	 52.8549 	 129.927 	 
C 	 -89.0214 	 52.9549 	 130.624 	 
H 	 -89.2101 	 52.6548 	 131.683 	 
H 	 -88.8347 	 52.0619 	 130.006 	 
H 	 -88.1385 	 53.5312 	 130.54 	 
S 	 -94.5401 	 53.6917 	 124.451 	 
C 	 -95.0052 	 52.1924 	 123.741 	 
C 	 -94.4778 	 51.1669 	 124.458 	 
C 	 -93.8292 	 51.5492 	 125.676 	 
C 	 -93.9137 	 52.9095 	 125.936 	 
H 	 -94.6275 	 50.0591 	 124.188 	 
C 	 -93.3682 	 50.4292 	 126.579 	 
H 	 -94.1929 	 49.8131 	 126.959 	 
H 	 -92.9226 	 50.9683 	 127.439 	 
C 	 -92.2747 	 49.4861 	 126.086 	 
H 	 -91.4019 	 50.0981 	 125.925 	 
H 	 -92.4983 	 48.9307 	 125.208 	 
C 	 -91.8042 	 48.5679 	 127.168 	 
H 	 -90.9244 	 48.0759 	 126.684 	 
H 	 -92.5147 	 47.8134 	 127.521 	 
H 	 -91.4527 	 49.2129 	 127.98 	 
H 	 -92.4995 	 56.2898 	 129.25 	 
H 	 -95.4694 	 52.1775 	 122.782 	 
