34

S 	 40.0757 	 22.4059 	 82.174 	 
C 	 39.0238 	 23.233 	 83.3176 	 
C 	 39.6949 	 23.8012 	 84.4014 	 
C 	 41.089 	 23.4705 	 84.3914 	 
C 	 41.4379 	 22.7343 	 83.2912 	 
H 	 41.8024 	 23.604 	 85.2223 	 
C 	 38.9552 	 24.3838 	 85.583 	 
H 	 39.2246 	 23.6946 	 86.3997 	 
H 	 37.9401 	 24.3976 	 85.3897 	 
C 	 39.5654 	 25.7253 	 86.0008 	 
H 	 40.5709 	 25.6166 	 86.3773 	 
H 	 39.7574 	 26.3509 	 85.1092 	 
C 	 38.5469 	 26.4133 	 86.8799 	 
H 	 38.8811 	 27.3496 	 87.2596 	 
H 	 37.701 	 26.5198 	 86.2622 	 
H 	 38.2609 	 25.7797 	 87.7244 	 
S 	 43.3225 	 22.9258 	 81.3415 	 
C 	 44.7643 	 21.9947 	 81.3322 	 
C 	 44.9405 	 21.3301 	 82.5906 	 
C 	 43.8379 	 21.5339 	 83.4884 	 
C 	 42.7771 	 22.2843 	 82.8823 	 
H 	 45.8519 	 20.7733 	 82.6415 	 
C 	 43.7408 	 20.7188 	 84.7276 	 
H 	 44.2613 	 19.7345 	 84.6271 	 
H 	 42.6898 	 20.5386 	 84.9208 	 
C 	 44.374 	 21.3353 	 85.9862 	 
H 	 44.1286 	 22.3814 	 86.1476 	 
H 	 45.4514 	 21.2001 	 85.8956 	 
C 	 43.9756 	 20.3739 	 87.1413 	 
H 	 44.2417 	 20.8428 	 88.1061 	 
H 	 44.3084 	 19.3612 	 86.9778 	 
H 	 42.8986 	 20.3846 	 87.2939 	 
H 	 37.8915 	 23.2168 	 83.3517 	 
H 	 45.536 	 21.9553 	 80.6157 	 
