34

S 	 -16.1585 	 74.6441 	 54.7484 	 
C 	 -16.4763 	 73.8503 	 53.1598 	 
C 	 -15.5842 	 72.8223 	 52.8737 	 
C 	 -14.6461 	 72.691 	 53.9889 	 
C 	 -14.7052 	 73.6427 	 54.9592 	 
H 	 -13.8378 	 71.9734 	 53.8607 	 
C 	 -15.6717 	 71.7772 	 51.7526 	 
H 	 -16.6155 	 71.807 	 51.2344 	 
H 	 -15.8085 	 70.7998 	 52.3298 	 
C 	 -14.4718 	 71.6508 	 50.8179 	 
H 	 -14.4612 	 72.5225 	 50.1719 	 
H 	 -13.5891 	 71.578 	 51.4438 	 
C 	 -14.5589 	 70.3587 	 50.0634 	 
H 	 -15.5525 	 70.3082 	 49.6022 	 
H 	 -13.7488 	 70.3139 	 49.2434 	 
H 	 -14.5584 	 69.3901 	 50.6342 	 
S 	 -14.7475 	 74.0123 	 57.5793 	 
C 	 -13.2574 	 74.2093 	 58.4944 	 
C 	 -12.1327 	 74.0706 	 57.7047 	 
C 	 -12.5396 	 73.5389 	 56.3943 	 
C 	 -13.9007 	 73.6627 	 56.1296 	 
H 	 -11.1467 	 74.1815 	 58.1859 	 
C 	 -11.4731 	 73.3609 	 55.3078 	 
H 	 -11.7772 	 72.672 	 54.5019 	 
H 	 -10.593 	 72.8082 	 55.6488 	 
C 	 -10.8485 	 74.5733 	 54.6879 	 
H 	 -10.0337 	 74.1454 	 54.0494 	 
H 	 -10.414 	 75.1217 	 55.4659 	 
C 	 -11.863 	 75.4721 	 53.9737 	 
H 	 -12.2438 	 74.9251 	 53.0872 	 
H 	 -11.4975 	 76.4081 	 53.6025 	 
H 	 -12.7526 	 75.7256 	 54.5763 	 
H 	 -17.3682 	 74.0442 	 52.5479 	 
H 	 -13.1488 	 74.506 	 59.5702 	 
