34

S 	 -35.8113 	 56.2941 	 110.475 	 
C 	 -36.0652 	 56.6228 	 112.158 	 
C 	 -37.0161 	 55.7546 	 112.744 	 
C 	 -37.5015 	 54.8058 	 111.83 	 
C 	 -36.9893 	 54.9437 	 110.562 	 
H 	 -38.1538 	 54.0753 	 112.187 	 
C 	 -37.3338 	 55.7306 	 114.204 	 
H 	 -37.535 	 56.7123 	 114.609 	 
H 	 -36.4078 	 55.4831 	 114.728 	 
C 	 -38.4985 	 54.7369 	 114.63 	 
H 	 -38.4699 	 53.7125 	 114.206 	 
H 	 -38.4607 	 54.5972 	 115.727 	 
C 	 -39.8846 	 55.3558 	 114.412 	 
H 	 -39.9842 	 55.6045 	 113.357 	 
H 	 -40.716 	 54.6273 	 114.689 	 
H 	 -39.9277 	 56.2347 	 114.991 	 
S 	 -35.8901 	 53.6824 	 108.263 	 
C 	 -36.8728 	 52.9279 	 107.099 	 
C 	 -38.1868 	 52.9313 	 107.597 	 
C 	 -38.3366 	 53.6102 	 108.867 	 
C 	 -37.2111 	 54.1134 	 109.342 	 
H 	 -39.033 	 52.6071 	 107.058 	 
C 	 -39.688 	 53.8352 	 109.535 	 
H 	 -40.3772 	 53.9671 	 108.67 	 
H 	 -39.6557 	 54.6303 	 110.28 	 
C 	 -40.2875 	 52.532 	 110.157 	 
H 	 -41.2711 	 52.7182 	 110.547 	 
H 	 -39.6897 	 52.2537 	 111.027 	 
C 	 -40.8107 	 51.4189 	 109.277 	 
H 	 -41.232 	 50.6226 	 109.875 	 
H 	 -39.9672 	 50.9662 	 108.822 	 
H 	 -41.5713 	 51.8164 	 108.527 	 
H 	 -35.4776 	 57.2614 	 112.766 	 
H 	 -36.5459 	 52.7823 	 106.108 	 
