34

S 	 -14.6132 	 72.9836 	 51.258 	 
C 	 -14.0428 	 71.9726 	 49.9131 	 
C 	 -12.9159 	 71.2367 	 50.2909 	 
C 	 -12.6135 	 71.3457 	 51.6895 	 
C 	 -13.2536 	 72.4841 	 52.2962 	 
H 	 -11.7944 	 70.8972 	 52.2285 	 
C 	 -12.1968 	 70.2362 	 49.3925 	 
H 	 -11.1161 	 70.0446 	 49.6884 	 
H 	 -12.1161 	 70.7495 	 48.4835 	 
C 	 -12.8808 	 68.8293 	 49.3466 	 
H 	 -12.9747 	 68.3773 	 50.3229 	 
H 	 -13.8828 	 68.9967 	 48.8449 	 
C 	 -12.0499 	 67.9639 	 48.3074 	 
H 	 -11.1856 	 67.4998 	 48.8261 	 
H 	 -12.6771 	 67.1423 	 47.9484 	 
H 	 -11.7226 	 68.4986 	 47.4555 	 
S 	 -13.1987 	 74.8386 	 53.5676 	 
C 	 -12.2149 	 75.008 	 55.0335 	 
C 	 -11.5252 	 73.8659 	 55.3298 	 
C 	 -11.9184 	 72.7448 	 54.5059 	 
C 	 -12.8191 	 73.1157 	 53.5212 	 
H 	 -10.7775 	 73.8572 	 56.1711 	 
C 	 -11.4657 	 71.342 	 54.7755 	 
H 	 -12.2934 	 70.7365 	 54.4214 	 
H 	 -11.6008 	 71.2391 	 55.8508 	 
C 	 -10.1236 	 70.9904 	 54.3307 	 
H 	 -9.46018 	 71.5431 	 54.9633 	 
H 	 -9.92998 	 71.1886 	 53.3091 	 
C 	 -9.74258 	 69.5031 	 54.6985 	 
H 	 -9.9387 	 69.3173 	 55.747 	 
H 	 -8.75 	 69.2487 	 54.5387 	 
H 	 -10.4145 	 68.7142 	 54.1755 	 
H 	 -14.446 	 71.8006 	 48.9634 	 
H 	 -12.0904 	 75.8604 	 55.6142 	 
