34

S 	 2.7255 	 -14.1658 	 61.1466 	 
C 	 3.28415 	 -13.6854 	 62.7344 	 
C 	 2.37413 	 -14.0127 	 63.694 	 
C 	 1.35494 	 -14.9527 	 63.2123 	 
C 	 1.39825 	 -15.1794 	 61.8303 	 
H 	 0.492718 	 -15.34 	 63.7594 	 
C 	 2.33916 	 -13.4509 	 65.0823 	 
H 	 3.30893 	 -12.9427 	 65.309 	 
H 	 2.07196 	 -14.1919 	 65.8358 	 
C 	 1.3612 	 -12.2256 	 65.1291 	 
H 	 1.6491 	 -11.5741 	 64.3426 	 
H 	 0.338976 	 -12.5378 	 64.7971 	 
C 	 1.12305 	 -11.4193 	 66.3794 	 
H 	 1.94559 	 -11.166 	 67.0488 	 
H 	 0.660945 	 -10.5101 	 66.1384 	 
H 	 0.343178 	 -11.8617 	 66.9786 	 
S 	 -0.470397 	 -15.0727 	 59.8053 	 
C 	 -1.24046 	 -16.5672 	 59.2557 	 
C 	 -0.749339 	 -17.6228 	 59.9131 	 
C 	 0.266818 	 -17.3318 	 60.8529 	 
C 	 0.48408 	 -15.9516 	 60.9865 	 
H 	 -1.16453 	 -18.5751 	 59.6177 	 
C 	 1.11199 	 -18.3858 	 61.517 	 
H 	 0.558271 	 -19.298 	 61.5557 	 
H 	 1.21969 	 -18.0983 	 62.5505 	 
C 	 2.42085 	 -18.6203 	 60.7332 	 
H 	 3.1356 	 -17.8328 	 60.8262 	 
H 	 2.17453 	 -18.5845 	 59.6752 	 
C 	 3.16051 	 -19.9217 	 61.1679 	 
H 	 2.499 	 -20.7203 	 61.5621 	 
H 	 4.00492 	 -19.7979 	 61.8804 	 
H 	 3.66077 	 -20.3247 	 60.3242 	 
H 	 4.14522 	 -13.0691 	 62.9909 	 
H 	 -2.12467 	 -16.6642 	 58.5601 	 
