34

S 	 -43.3289 	 16.8265 	 82.4195 	 
C 	 -41.611 	 16.7227 	 82.3983 	 
C 	 -40.9737 	 17.6203 	 83.2228 	 
C 	 -41.9402 	 18.3086 	 84.0042 	 
C 	 -43.2508 	 17.9272 	 83.7545 	 
H 	 -41.736 	 18.9556 	 84.8476 	 
C 	 -39.4663 	 17.7811 	 83.4065 	 
H 	 -39.2068 	 17.1013 	 84.2617 	 
H 	 -39.3569 	 18.9003 	 83.5713 	 
C 	 -38.6402 	 17.3773 	 82.1946 	 
H 	 -37.5903 	 17.2845 	 82.4368 	 
H 	 -38.7271 	 16.3848 	 81.8911 	 
C 	 -38.8118 	 18.3635 	 81.0154 	 
H 	 -39.83 	 18.3019 	 80.6546 	 
H 	 -38.6229 	 19.366 	 81.4522 	 
H 	 -38.1181 	 18.1967 	 80.2529 	 
S 	 -45.601 	 19.3989 	 83.2835 	 
C 	 -46.6335 	 19.7314 	 84.6107 	 
C 	 -46.1323 	 19.2537 	 85.8025 	 
C 	 -44.8964 	 18.4814 	 85.6708 	 
C 	 -44.4774 	 18.4453 	 84.327 	 
H 	 -46.7478 	 19.4111 	 86.6568 	 
C 	 -44.2433 	 17.8992 	 86.9141 	 
H 	 -43.6023 	 17.0218 	 86.703 	 
H 	 -45.0789 	 17.5706 	 87.582 	 
C 	 -43.3824 	 18.9302 	 87.6672 	 
H 	 -42.5516 	 19.1052 	 87.0338 	 
H 	 -43.0092 	 18.2952 	 88.5542 	 
C 	 -44.0943 	 20.2206 	 88.194 	 
H 	 -43.5201 	 20.87 	 88.8696 	 
H 	 -44.9817 	 19.9669 	 88.7606 	 
H 	 -44.3625 	 20.8481 	 87.2949 	 
H 	 -41.0373 	 16.13 	 81.784 	 
H 	 -47.5658 	 20.2965 	 84.6502 	 
