34

S 	 -98.6624 	 38.9556 	 124.405 	 
C 	 -97.8435 	 38.5405 	 125.906 	 
C 	 -96.719 	 39.338 	 126.096 	 
C 	 -96.6041 	 40.3307 	 125.06 	 
C 	 -97.6099 	 40.2942 	 124.092 	 
H 	 -95.8992 	 41.1063 	 124.938 	 
C 	 -95.822 	 39.2646 	 127.331 	 
H 	 -94.9479 	 39.8124 	 127.003 	 
H 	 -95.4662 	 38.2909 	 127.462 	 
C 	 -96.3574 	 39.9113 	 128.708 	 
H 	 -96.503 	 40.9697 	 128.525 	 
H 	 -97.3399 	 39.5499 	 129.059 	 
C 	 -95.3048 	 39.7299 	 129.834 	 
H 	 -94.3401 	 39.9959 	 129.392 	 
H 	 -95.5089 	 40.3777 	 130.762 	 
H 	 -95.2509 	 38.6485 	 130.021 	 
S 	 -98.2462 	 40.3736 	 121.469 	 
C 	 -98.3771 	 41.8796 	 120.622 	 
C 	 -98.2671 	 42.973 	 121.481 	 
C 	 -97.8068 	 42.5544 	 122.783 	 
C 	 -97.8119 	 41.1554 	 122.936 	 
H 	 -98.3365 	 44.0228 	 121.246 	 
C 	 -97.6795 	 43.5395 	 123.952 	 
H 	 -96.9026 	 44.3416 	 123.762 	 
H 	 -97.24 	 43.0109 	 124.853 	 
C 	 -98.989 	 44.2023 	 124.328 	 
H 	 -99.4601 	 44.6401 	 123.454 	 
H 	 -98.8908 	 45.0084 	 124.951 	 
C 	 -99.9141 	 43.2057 	 124.994 	 
H 	 -100.938 	 43.5817 	 125.283 	 
H 	 -99.484 	 42.8092 	 125.907 	 
H 	 -100.182 	 42.4217 	 124.349 	 
H 	 -98.0019 	 37.6411 	 126.454 	 
H 	 -98.6904 	 42.0122 	 119.568 	 
