34

S 	 59.4181 	 -5.3708 	 88.1718 	 
C 	 58.7302 	 -3.86139 	 88.687 	 
C 	 58.0234 	 -3.22397 	 87.7189 	 
C 	 57.9272 	 -4.03396 	 86.5788 	 
C 	 58.5963 	 -5.23338 	 86.6513 	 
H 	 57.3949 	 -3.7427 	 85.7248 	 
C 	 57.5477 	 -1.78328 	 87.7214 	 
H 	 57.1784 	 -1.54587 	 88.7479 	 
H 	 56.7034 	 -1.7696 	 87.0704 	 
C 	 58.5557 	 -0.823537 	 87.1554 	 
H 	 58.1479 	 0.1253 	 87.0553 	 
H 	 59.3088 	 -0.658054 	 87.9506 	 
C 	 59.0753 	 -1.14176 	 85.7831 	 
H 	 59.9258 	 -1.83707 	 85.7638 	 
H 	 58.3223 	 -1.51589 	 85.0179 	 
H 	 59.5972 	 -0.230844 	 85.3836 	 
S 	 57.9269 	 -7.89988 	 86.1721 	 
C 	 57.7053 	 -8.3833 	 84.5434 	 
C 	 58.2037 	 -7.43069 	 83.6461 	 
C 	 58.6709 	 -6.22718 	 84.2648 	 
C 	 58.5369 	 -6.29149 	 85.6706 	 
H 	 58.1623 	 -7.62751 	 82.5595 	 
C 	 59.4347 	 -5.16518 	 83.5372 	 
H 	 60.2129 	 -5.56442 	 82.9293 	 
H 	 59.9602 	 -4.56609 	 84.221 	 
C 	 58.5662 	 -4.2575 	 82.6533 	 
H 	 57.675 	 -3.83926 	 83.1904 	 
H 	 58.2068 	 -4.95661 	 81.901 	 
C 	 59.2974 	 -3.09103 	 82.0348 	 
H 	 60.2791 	 -3.21577 	 81.573 	 
H 	 59.3496 	 -2.23692 	 82.6599 	 
H 	 58.6919 	 -2.66325 	 81.2806 	 
H 	 58.9023 	 -3.45502 	 89.6165 	 
H 	 57.2897 	 -9.35846 	 84.313 	 
