34

S 	 10.3359 	 33.2156 	 58.2437 	 
C 	 11.6731 	 32.1331 	 58.4118 	 
C 	 12.7123 	 32.7272 	 59.0843 	 
C 	 12.3087 	 33.9733 	 59.6782 	 
C 	 11.0029 	 34.3817 	 59.2964 	 
H 	 12.8624 	 34.4974 	 60.4035 	 
C 	 14.0852 	 32.1261 	 59.2326 	 
H 	 14.8289 	 32.9113 	 59.4341 	 
H 	 14.3037 	 31.6477 	 58.3223 	 
C 	 14.3036 	 31.1992 	 60.3949 	 
H 	 14.1041 	 31.7268 	 61.3432 	 
H 	 13.6125 	 30.3415 	 60.3713 	 
C 	 15.6905 	 30.4691 	 60.2646 	 
H 	 15.9856 	 29.9684 	 61.17 	 
H 	 15.6447 	 29.6473 	 59.5161 	 
H 	 16.4226 	 31.2122 	 60.0255 	 
S 	 9.12372 	 35.7338 	 60.7125 	 
C 	 9.13111 	 37.4589 	 60.7784 	 
C 	 10.0986 	 37.9524 	 59.9372 	 
C 	 10.8415 	 36.943 	 59.213 	 
C 	 10.3921 	 35.6708 	 59.55 	 
H 	 10.3141 	 38.9994 	 59.8213 	 
C 	 11.9474 	 37.1807 	 58.2189 	 
H 	 11.9377 	 36.4386 	 57.4946 	 
H 	 12.8875 	 37.1756 	 58.682 	 
C 	 11.7914 	 38.4334 	 57.3215 	 
H 	 12.7258 	 38.6573 	 56.8312 	 
H 	 11.5711 	 39.2589 	 57.9852 	 
C 	 10.7097 	 38.3724 	 56.1799 	 
H 	 10.9139 	 37.4141 	 55.5533 	 
H 	 10.975 	 39.1913 	 55.4301 	 
H 	 9.60875 	 38.4257 	 56.3025 	 
H 	 11.8568 	 31.1909 	 57.9442 	 
H 	 8.35684 	 38.103 	 61.1978 	 
