34

S 	 -37.0101 	 34.9937 	 82.5876 	 
C 	 -36.3744 	 36.5934 	 82.6822 	 
C 	 -37.2904 	 37.5885 	 82.7013 	 
C 	 -38.6155 	 37.0262 	 82.678 	 
C 	 -38.6162 	 35.6101 	 82.6709 	 
H 	 -39.5752 	 37.562 	 82.5459 	 
C 	 -36.9916 	 39.0311 	 82.6656 	 
H 	 -36.9768 	 39.4092 	 81.7008 	 
H 	 -36.0346 	 39.1488 	 83.1958 	 
C 	 -37.8523 	 40.0112 	 83.5905 	 
H 	 -38.8605 	 39.9457 	 83.1608 	 
H 	 -37.8595 	 39.5391 	 84.6249 	 
C 	 -37.4491 	 41.5106 	 83.4413 	 
H 	 -37.9164 	 41.9018 	 82.482 	 
H 	 -37.9309 	 42.1655 	 84.2365 	 
H 	 -36.4056 	 41.6027 	 83.3035 	 
S 	 -40.1864 	 33.5386 	 83.709 	 
C 	 -41.5011 	 33.0116 	 82.7124 	 
C 	 -41.7542 	 33.6835 	 81.5711 	 
C 	 -40.7615 	 34.6792 	 81.3991 	 
C 	 -39.7556 	 34.7001 	 82.4324 	 
H 	 -42.6451 	 33.5158 	 80.9623 	 
C 	 -40.7896 	 35.7562 	 80.286 	 
H 	 -40.9715 	 36.6911 	 80.7563 	 
H 	 -41.6214 	 35.4101 	 79.7787 	 
C 	 -39.5081 	 35.8738 	 79.3889 	 
H 	 -39.2806 	 34.8959 	 78.9967 	 
H 	 -38.651 	 36.2468 	 79.9869 	 
C 	 -39.547 	 36.8165 	 78.1521 	 
H 	 -40.3074 	 36.5197 	 77.4664 	 
H 	 -38.5609 	 36.7909 	 77.6047 	 
H 	 -39.6167 	 37.835 	 78.3573 	 
H 	 -35.3424 	 36.8866 	 82.6767 	 
H 	 -42.1616 	 32.2217 	 83.0311 	 
