34

S 	 54.2192 	 11.3863 	 49.392 	 
C 	 54.9435 	 12.3227 	 48.1187 	 
C 	 55.8359 	 13.2749 	 48.5883 	 
C 	 55.8027 	 13.3218 	 50.0101 	 
C 	 54.9059 	 12.5016 	 50.6045 	 
H 	 56.4169 	 13.9158 	 50.6942 	 
C 	 56.5925 	 14.3726 	 47.8252 	 
H 	 57.1433 	 14.0489 	 46.9483 	 
H 	 57.3254 	 14.6568 	 48.5048 	 
C 	 55.6561 	 15.623 	 47.4356 	 
H 	 54.9374 	 15.8219 	 48.2261 	 
H 	 56.2876 	 16.4671 	 47.3428 	 
C 	 54.9726 	 15.3379 	 46.0509 	 
H 	 55.757 	 15.1822 	 45.3082 	 
H 	 54.2294 	 14.511 	 46.0669 	 
H 	 54.4256 	 16.2344 	 45.8235 	 
S 	 55.9912 	 12.2442 	 53.1411 	 
C 	 54.8964 	 11.7812 	 54.4359 	 
C 	 53.57 	 11.7513 	 54.0717 	 
C 	 53.4278 	 12.1035 	 52.6874 	 
C 	 54.6437 	 12.3954 	 52.0511 	 
H 	 52.8303 	 11.4543 	 54.7977 	 
C 	 52.0857 	 12.156 	 52.0563 	 
H 	 51.6667 	 11.1814 	 52.2118 	 
H 	 52.1108 	 12.303 	 50.9422 	 
C 	 51.0544 	 13.0883 	 52.7282 	 
H 	 51.2971 	 14.161 	 52.564 	 
H 	 50.9306 	 12.9293 	 53.7604 	 
C 	 49.5949 	 12.9316 	 52.2464 	 
H 	 48.8523 	 13.6102 	 52.7686 	 
H 	 49.1638 	 11.9942 	 52.5358 	 
H 	 49.4384 	 13.0399 	 51.12 	 
H 	 54.9273 	 12.1303 	 47.0486 	 
H 	 55.1633 	 11.3844 	 55.3907 	 
