34

S 	 44.8026 	 19.6819 	 46.335 	 
C 	 43.8238 	 18.2486 	 45.9339 	 
C 	 42.6309 	 18.5758 	 45.2879 	 
C 	 42.5134 	 19.9947 	 45.2282 	 
C 	 43.5454 	 20.7172 	 45.73 	 
H 	 41.6962 	 20.5774 	 44.7679 	 
C 	 41.5496 	 17.6276 	 44.7922 	 
H 	 41.8741 	 16.5123 	 44.9532 	 
H 	 41.283 	 17.8903 	 43.7915 	 
C 	 40.1849 	 17.7852 	 45.4916 	 
H 	 39.5536 	 18.5377 	 44.9765 	 
H 	 39.683 	 16.7914 	 45.4561 	 
C 	 40.3061 	 18.0381 	 46.9992 	 
H 	 40.9307 	 17.2351 	 47.5266 	 
H 	 40.9203 	 18.9639 	 47.2386 	 
H 	 39.2863 	 17.9986 	 47.4478 	 
S 	 45.4351 	 22.4898 	 44.9483 	 
C 	 45.1089 	 24.2067 	 44.8925 	 
C 	 43.824 	 24.4873 	 45.283 	 
C 	 43.1115 	 23.342 	 45.8017 	 
C 	 43.7815 	 22.1663 	 45.5442 	 
H 	 43.4359 	 25.5438 	 45.2896 	 
C 	 41.7566 	 23.345 	 46.4131 	 
H 	 41.8612 	 23.4553 	 47.5211 	 
H 	 41.4126 	 22.312 	 46.4554 	 
C 	 40.6451 	 24.2664 	 45.8938 	 
H 	 40.8107 	 25.3362 	 46.1034 	 
H 	 39.6695 	 24.0677 	 46.4591 	 
C 	 40.5034 	 24.3224 	 44.3347 	 
H 	 41.3084 	 24.6897 	 43.7273 	 
H 	 39.5568 	 24.808 	 44.0429 	 
H 	 40.4193 	 23.2991 	 43.9643 	 
H 	 44.0557 	 17.2357 	 46.0412 	 
H 	 45.7495 	 24.9074 	 44.4768 	 
