34

S 	 -71.706 	 43.9982 	 135.073 	 
C 	 -72.5045 	 43.504 	 133.612 	 
C 	 -71.9824 	 42.2852 	 133.219 	 
C 	 -70.9996 	 41.8095 	 134.108 	 
C 	 -70.6922 	 42.6295 	 135.181 	 
H 	 -70.4603 	 40.8727 	 134.042 	 
C 	 -72.4528 	 41.4999 	 132.034 	 
H 	 -71.8575 	 40.5528 	 131.799 	 
H 	 -72.1658 	 42.0742 	 131.188 	 
C 	 -73.9467 	 41.2826 	 132.05 	 
H 	 -74.1706 	 40.8472 	 133.019 	 
H 	 -74.4444 	 42.2799 	 131.941 	 
C 	 -74.5735 	 40.2756 	 131.017 	 
H 	 -75.6077 	 40.1359 	 131.153 	 
H 	 -74.4645 	 40.7467 	 129.98 	 
H 	 -74.097 	 39.3187 	 131.032 	 
S 	 -70.3848 	 42.6496 	 137.896 	 
C 	 -68.7655 	 42.5441 	 138.516 	 
C 	 -67.7906 	 42.5812 	 137.528 	 
C 	 -68.2988 	 42.5336 	 136.212 	 
C 	 -69.7155 	 42.5103 	 136.194 	 
H 	 -66.7199 	 42.5798 	 137.669 	 
C 	 -67.5135 	 42.5643 	 134.95 	 
H 	 -68.1959 	 42.1618 	 134.281 	 
H 	 -66.6984 	 41.8787 	 135.084 	 
C 	 -67.1457 	 43.9811 	 134.587 	 
H 	 -66.7585 	 44.593 	 135.419 	 
H 	 -68.0979 	 44.4756 	 134.42 	 
C 	 -66.3936 	 44.1676 	 133.25 	 
H 	 -65.5151 	 43.4654 	 133.352 	 
H 	 -66.0494 	 45.2296 	 133.139 	 
H 	 -67.0403 	 43.9004 	 132.425 	 
H 	 -73.3736 	 43.9367 	 133.076 	 
H 	 -68.6001 	 42.3975 	 139.565 	 
