34

S 	 -105.196 	 54.0159 	 118.013 	 
C 	 -103.96 	 52.7729 	 117.546 	 
C 	 -102.785 	 53.4578 	 117.062 	 
C 	 -102.929 	 54.8624 	 117.015 	 
C 	 -104.105 	 55.359 	 117.598 	 
H 	 -102.146 	 55.4938 	 116.69 	 
C 	 -101.724 	 52.6788 	 116.344 	 
H 	 -102.18 	 51.7415 	 115.975 	 
H 	 -100.921 	 52.5276 	 117.15 	 
C 	 -100.996 	 53.3991 	 115.192 	 
H 	 -100.628 	 54.3095 	 115.627 	 
H 	 -100.061 	 52.8434 	 114.842 	 
C 	 -101.867 	 53.6478 	 113.93 	 
H 	 -102.929 	 53.8294 	 114.113 	 
H 	 -101.42 	 54.4732 	 113.397 	 
H 	 -101.822 	 52.7794 	 113.211 	 
S 	 -106.138 	 57.2328 	 116.987 	 
C 	 -105.701 	 58.8965 	 117.288 	 
C 	 -104.521 	 59.0214 	 117.929 	 
C 	 -103.829 	 57.8384 	 118.087 	 
C 	 -104.589 	 56.7279 	 117.718 	 
H 	 -104.187 	 60.0709 	 118.07 	 
C 	 -102.441 	 57.8423 	 118.697 	 
H 	 -101.931 	 57.0307 	 118.222 	 
H 	 -102.689 	 57.5422 	 119.69 	 
C 	 -101.605 	 59.1801 	 118.564 	 
H 	 -102.206 	 59.9275 	 119.101 	 
H 	 -101.499 	 59.4704 	 117.55 	 
C 	 -100.278 	 58.9683 	 119.228 	 
H 	 -100.236 	 58.5198 	 120.244 	 
H 	 -99.8758 	 59.9342 	 119.408 	 
H 	 -99.6531 	 58.5182 	 118.546 	 
H 	 -104.146 	 51.7381 	 117.471 	 
H 	 -106.473 	 59.5696 	 117.023 	 
