34

S 	 -65.6016 	 55.3399 	 131.643 	 
C 	 -65.4625 	 55.7444 	 133.34 	 
C 	 -66.6665 	 55.7935 	 133.994 	 
C 	 -67.7733 	 55.5208 	 133.146 	 
C 	 -67.3331 	 55.2085 	 131.865 	 
H 	 -68.8324 	 55.3664 	 133.366 	 
C 	 -66.836 	 56.3361 	 135.393 	 
H 	 -65.9639 	 56.3369 	 136.017 	 
H 	 -67.6167 	 55.7284 	 135.814 	 
C 	 -67.3412 	 57.722 	 135.508 	 
H 	 -66.4475 	 58.2658 	 135.228 	 
H 	 -68.1966 	 57.9359 	 134.872 	 
C 	 -67.7875 	 57.9966 	 136.965 	 
H 	 -68.1005 	 59.0564 	 136.948 	 
H 	 -68.6436 	 57.3698 	 137.191 	 
H 	 -67.0515 	 57.8275 	 137.732 	 
S 	 -67.6355 	 53.3437 	 129.864 	 
C 	 -68.8816 	 53.4936 	 128.642 	 
C 	 -69.6593 	 54.6002 	 128.869 	 
C 	 -69.2915 	 55.321 	 130.131 	 
C 	 -68.1579 	 54.7594 	 130.746 	 
H 	 -70.5275 	 54.799 	 128.102 	 
C 	 -70.1636 	 56.4192 	 130.688 	 
H 	 -70.4008 	 57.2037 	 129.933 	 
H 	 -69.5813 	 57.037 	 131.386 	 
C 	 -71.3654 	 55.9893 	 131.551 	 
H 	 -71.8138 	 56.8347 	 132.159 	 
H 	 -70.9645 	 55.305 	 132.307 	 
C 	 -72.4099 	 55.1875 	 130.869 	 
H 	 -72.802 	 55.6238 	 129.943 	 
H 	 -73.1703 	 54.7121 	 131.407 	 
H 	 -71.7773 	 54.3421 	 130.377 	 
H 	 -64.5562 	 56.1332 	 133.801 	 
H 	 -69.0238 	 52.7935 	 127.809 	 
