34

S 	 -15.5426 	 75.3908 	 55.3089 	 
C 	 -16.8512 	 74.4737 	 54.6292 	 
C 	 -16.4171 	 73.3859 	 53.888 	 
C 	 -15.0004 	 73.2686 	 53.9397 	 
C 	 -14.4021 	 74.3739 	 54.5664 	 
H 	 -14.3403 	 72.5245 	 53.63 	 
C 	 -17.1916 	 72.3119 	 53.121 	 
H 	 -18.2186 	 72.1443 	 53.4364 	 
H 	 -16.7584 	 71.3216 	 53.1593 	 
C 	 -17.1904 	 72.5789 	 51.5633 	 
H 	 -17.4961 	 73.5947 	 51.3586 	 
H 	 -16.2747 	 72.7247 	 51.0778 	 
C 	 -18.0846 	 71.647 	 50.645 	 
H 	 -19.0244 	 71.5378 	 51.0398 	 
H 	 -18.3441 	 72.0983 	 49.6987 	 
H 	 -17.8895 	 70.5855 	 50.5491 	 
S 	 -12.543 	 75.4898 	 56.2689 	 
C 	 -10.8004 	 75.2355 	 55.97 	 
C 	 -10.652 	 74.6376 	 54.709 	 
C 	 -11.807 	 74.3223 	 54.0547 	 
C 	 -12.9586 	 74.662 	 54.7385 	 
H 	 -9.63721 	 74.4861 	 54.3011 	 
C 	 -11.8608 	 73.5128 	 52.7793 	 
H 	 -12.6627 	 73.9416 	 52.2175 	 
H 	 -12.273 	 72.4973 	 52.9957 	 
C 	 -10.6123 	 73.5562 	 51.8319 	 
H 	 -10.612 	 72.7998 	 51.0641 	 
H 	 -9.8232 	 73.2577 	 52.5431 	 
C 	 -10.4184 	 74.875 	 51.2135 	 
H 	 -11.071 	 75.0443 	 50.4299 	 
H 	 -9.44926 	 75.0509 	 50.7571 	 
H 	 -10.4153 	 75.7018 	 51.8678 	 
H 	 -17.9107 	 74.7476 	 54.6878 	 
H 	 -10.0229 	 75.6148 	 56.6239 	 
