34

S 	 39.0791 	 8.08964 	 88.9978 	 
C 	 40.2793 	 8.06766 	 87.6606 	 
C 	 40.1221 	 6.97653 	 86.8843 	 
C 	 39.0535 	 6.1653 	 87.344 	 
C 	 38.3833 	 6.65808 	 88.4805 	 
H 	 38.7231 	 5.29116 	 86.8428 	 
C 	 41.0085 	 6.56185 	 85.7029 	 
H 	 41.9358 	 7.10219 	 85.6928 	 
H 	 40.5057 	 6.75767 	 84.7757 	 
C 	 41.4756 	 5.08805 	 85.7072 	 
H 	 40.5906 	 4.42756 	 85.6992 	 
H 	 41.9639 	 4.86111 	 84.7371 	 
C 	 42.3585 	 4.84051 	 86.9516 	 
H 	 41.9208 	 5.16671 	 87.9562 	 
H 	 42.8077 	 3.8151 	 87.0186 	 
H 	 43.1764 	 5.53343 	 86.7556 	 
S 	 35.6251 	 6.69948 	 88.3469 	 
C 	 34.7318 	 5.94878 	 89.6281 	 
C 	 35.5804 	 5.38502 	 90.5714 	 
C 	 36.9744 	 5.72063 	 90.4252 	 
C 	 37.1828 	 6.12091 	 89.0919 	 
H 	 35.0441 	 5.0593 	 91.4793 	 
C 	 37.9408 	 5.72275 	 91.5155 	 
H 	 37.3711 	 5.78687 	 92.4197 	 
H 	 38.6045 	 6.63066 	 91.3738 	 
C 	 38.7171 	 4.3466 	 91.6647 	 
H 	 39.2472 	 4.14283 	 90.7503 	 
H 	 37.9614 	 3.60573 	 91.6933 	 
C 	 39.5472 	 4.17554 	 92.8984 	 
H 	 39.9784 	 3.15173 	 92.8047 	 
H 	 38.9474 	 4.2665 	 93.7295 	 
H 	 40.399 	 4.74293 	 92.7785 	 
H 	 41.0763 	 8.79822 	 87.531 	 
H 	 33.6876 	 5.75712 	 89.5809 	 
