34

S 	 41.1565 	 11.2836 	 80.667 	 
C 	 41.9813 	 10.9762 	 79.1201 	 
C 	 42.4802 	 12.1439 	 78.5584 	 
C 	 42.0105 	 13.2485 	 79.2778 	 
C 	 41.4327 	 13.0114 	 80.4773 	 
H 	 42.053 	 14.2011 	 78.8856 	 
C 	 43.2 	 12.1758 	 77.2549 	 
H 	 43.9995 	 11.4654 	 77.2683 	 
H 	 43.4499 	 13.2016 	 77.0697 	 
C 	 42.2081 	 11.8122 	 76.0488 	 
H 	 41.5956 	 10.9782 	 76.4704 	 
H 	 41.4917 	 12.5439 	 75.8499 	 
C 	 42.8849 	 11.3788 	 74.7225 	 
H 	 43.3984 	 10.468 	 74.9594 	 
H 	 42.2657 	 11.0823 	 73.8271 	 
H 	 43.5853 	 12.1742 	 74.4083 	 
S 	 39.0215 	 14.3067 	 81.0048 	 
C 	 39.0268 	 15.7742 	 81.9417 	 
C 	 40.3496 	 16.0684 	 82.3056 	 
C 	 41.3317 	 15.1515 	 81.8223 	 
C 	 40.7573 	 14.107 	 81.1399 	 
H 	 40.5357 	 16.9353 	 82.9685 	 
C 	 42.8 	 15.3413 	 82.1221 	 
H 	 43.2851 	 14.3266 	 82.255 	 
H 	 42.9256 	 15.8827 	 83.0301 	 
C 	 43.5462 	 16.1684 	 81.0696 	 
H 	 43.1503 	 17.2132 	 81.0295 	 
H 	 43.4712 	 15.731 	 80.0661 	 
C 	 45.0555 	 16.3117 	 81.4173 	 
H 	 45.0764 	 16.7302 	 82.4451 	 
H 	 45.5814 	 16.977 	 80.7098 	 
H 	 45.552 	 15.3608 	 81.4919 	 
H 	 42.2855 	 9.93433 	 78.8127 	 
H 	 38.2039 	 16.3201 	 82.3113 	 
