34

S 	 -112.871 	 47.7367 	 134.691 	 
C 	 -113.271 	 47.3444 	 133.067 	 
C 	 -114.305 	 48.0957 	 132.579 	 
C 	 -114.715 	 49.125 	 133.504 	 
C 	 -113.993 	 49.0923 	 134.669 	 
H 	 -115.472 	 49.9347 	 133.316 	 
C 	 -114.83 	 48.0577 	 131.101 	 
H 	 -114.155 	 47.461 	 130.544 	 
H 	 -114.595 	 49.0022 	 130.656 	 
C 	 -116.265 	 47.5513 	 130.654 	 
H 	 -116.334 	 47.5273 	 129.58 	 
H 	 -116.386 	 46.5428 	 131.072 	 
C 	 -117.345 	 48.4833 	 131.329 	 
H 	 -118.185 	 48.1294 	 130.754 	 
H 	 -117.239 	 48.1909 	 132.359 	 
H 	 -117.165 	 49.5461 	 131.354 	 
S 	 -114.37 	 49.185 	 137.459 	 
C 	 -114.616 	 50.7591 	 138.129 	 
C 	 -114.605 	 51.7694 	 137.228 	 
C 	 -114.348 	 51.3779 	 135.887 	 
C 	 -114.118 	 49.9934 	 135.85 	 
H 	 -114.826 	 52.7139 	 137.551 	 
C 	 -114.347 	 52.3557 	 134.729 	 
H 	 -115.187 	 52.9472 	 134.996 	 
H 	 -114.487 	 51.7217 	 133.774 	 
C 	 -113.044 	 53.1852 	 134.559 	 
H 	 -112.261 	 52.5192 	 134.262 	 
H 	 -112.861 	 53.5702 	 135.59 	 
C 	 -113.236 	 54.4207 	 133.626 	 
H 	 -112.303 	 54.9829 	 133.632 	 
H 	 -113.983 	 55.0337 	 134.014 	 
H 	 -113.654 	 54.1655 	 132.646 	 
H 	 -112.862 	 46.5631 	 132.457 	 
H 	 -114.86 	 51.0059 	 139.129 	 
