34

S 	 55.9233 	 12.4178 	 57.1149 	 
C 	 55.6325 	 14.12 	 57.505 	 
C 	 56.6914 	 14.8657 	 57.0411 	 
C 	 57.7546 	 14.0418 	 56.5905 	 
C 	 57.531 	 12.706 	 56.4763 	 
H 	 58.7722 	 14.3724 	 56.3177 	 
C 	 56.9055 	 16.3303 	 57.2951 	 
H 	 57.5707 	 16.7311 	 56.4809 	 
H 	 57.4685 	 16.5152 	 58.2182 	 
C 	 55.6193 	 17.144 	 57.4563 	 
H 	 54.9555 	 16.7738 	 56.7133 	 
H 	 55.1961 	 16.9646 	 58.4645 	 
C 	 55.9185 	 18.6806 	 57.3707 	 
H 	 54.9988 	 19.3177 	 57.4229 	 
H 	 56.469 	 18.8125 	 58.3969 	 
H 	 56.664 	 18.9839 	 56.5975 	 
S 	 59.1957 	 10.9037 	 57.7362 	 
C 	 60.3744 	 10.0946 	 56.7597 	 
C 	 60.1344 	 10.2012 	 55.4176 	 
C 	 59.1567 	 11.2092 	 55.1445 	 
C 	 58.5428 	 11.6775 	 56.2939 	 
H 	 60.8692 	 9.81013 	 54.7113 	 
C 	 59.0074 	 11.7899 	 53.7136 	 
H 	 59.9956 	 11.6645 	 53.2285 	 
H 	 58.7803 	 12.8827 	 53.7541 	 
C 	 57.9675 	 11.1084 	 52.82 	 
H 	 58.2517 	 10.0335 	 52.7689 	 
H 	 58.069 	 11.5544 	 51.797 	 
C 	 56.5173 	 11.1845 	 53.2202 	 
H 	 56.1078 	 12.149 	 53.0849 	 
H 	 56.2687 	 10.9374 	 54.2666 	 
H 	 55.9915 	 10.4098 	 52.6485 	 
H 	 54.7253 	 14.4486 	 57.9904 	 
H 	 61.1587 	 9.58825 	 57.2617 	 
