34

S 	 4.21181 	 27.669 	 66.9372 	 
C 	 3.77889 	 26.0004 	 66.5266 	 
C 	 4.66582 	 25.4745 	 65.6445 	 
C 	 5.76891 	 26.3623 	 65.3559 	 
C 	 5.70927 	 27.5857 	 66.0534 	 
H 	 6.54067 	 26.1733 	 64.7596 	 
C 	 4.53253 	 24.2286 	 64.7728 	 
H 	 5.57182 	 23.9789 	 64.3554 	 
H 	 3.75946 	 24.4353 	 63.9712 	 
C 	 4.02217 	 23.0253 	 65.536 	 
H 	 4.84223 	 22.501 	 66.0085 	 
H 	 3.37114 	 23.262 	 66.351 	 
C 	 3.08168 	 22.1081 	 64.5851 	 
H 	 2.7131 	 21.141 	 64.9007 	 
H 	 2.24249 	 22.6368 	 64.1607 	 
H 	 3.79701 	 21.9092 	 63.8284 	 
S 	 5.65586 	 30.2287 	 65.2593 	 
C 	 7.15741 	 30.9205 	 64.9107 	 
C 	 8.24281 	 30.3138 	 65.5208 	 
C 	 7.86168 	 29.0593 	 66.0451 	 
C 	 6.48566 	 28.8397 	 65.8742 	 
H 	 9.23976 	 30.7028 	 65.2671 	 
C 	 8.84524 	 28.0822 	 66.5602 	 
H 	 8.23041 	 27.246 	 66.9107 	 
H 	 9.46395 	 28.3905 	 67.4192 	 
C 	 9.88345 	 27.4716 	 65.5571 	 
H 	 10.5118 	 28.2918 	 65.2365 	 
H 	 9.39619 	 27.0258 	 64.657 	 
C 	 10.7933 	 26.4117 	 66.2526 	 
H 	 10.2871 	 25.5428 	 66.6511 	 
H 	 11.3464 	 26.9729 	 66.9733 	 
H 	 11.5418 	 26.0709 	 65.4971 	 
H 	 2.90692 	 25.4642 	 66.8841 	 
H 	 7.32625 	 31.7953 	 64.2486 	 
