34

S 	 -34.5686 	 61.7416 	 105.985 	 
C 	 -34.3769 	 62.1702 	 107.609 	 
C 	 -35.5953 	 62.3534 	 108.23 	 
C 	 -36.7106 	 62.2078 	 107.365 	 
C 	 -36.3418 	 61.9768 	 106.054 	 
H 	 -37.748 	 62.3121 	 107.624 	 
C 	 -35.6941 	 62.7539 	 109.607 	 
H 	 -36.6849 	 63.2806 	 109.757 	 
H 	 -34.9543 	 63.4931 	 109.755 	 
C 	 -35.5824 	 61.5764 	 110.583 	 
H 	 -34.7232 	 60.9338 	 110.412 	 
H 	 -35.3032 	 62.1758 	 111.502 	 
C 	 -36.843 	 60.7865 	 110.764 	 
H 	 -36.6527 	 60.0723 	 111.581 	 
H 	 -37.6358 	 61.4865 	 111.118 	 
H 	 -37.4012 	 60.1905 	 109.946 	 
S 	 -36.9974 	 59.8358 	 104.319 	 
C 	 -38.405 	 59.9549 	 103.38 	 
C 	 -39.1155 	 61.1374 	 103.618 	 
C 	 -38.4597 	 61.9697 	 104.602 	 
C 	 -37.272 	 61.4661 	 105.028 	 
H 	 -40.0847 	 61.3533 	 103.108 	 
C 	 -39.1786 	 63.2131 	 105.101 	 
H 	 -39.4582 	 63.8922 	 104.305 	 
H 	 -38.4863 	 63.8351 	 105.669 	 
C 	 -40.267 	 62.8637 	 106.134 	 
H 	 -39.9377 	 61.9485 	 106.562 	 
H 	 -41.1336 	 62.5675 	 105.456 	 
C 	 -40.7579 	 64.0046 	 107.132 	 
H 	 -41.6192 	 63.7672 	 107.808 	 
H 	 -41.145 	 64.8642 	 106.571 	 
H 	 -39.9078 	 64.3789 	 107.738 	 
H 	 -33.5146 	 62.3202 	 108.226 	 
H 	 -38.7392 	 59.145 	 102.81 	 
