34

S 	 13.351 	 -9.35476 	 80.4559 	 
C 	 12.3959 	 -7.91854 	 80.0251 	 
C 	 13.0225 	 -7.24614 	 78.9825 	 
C 	 14.4119 	 -7.70395 	 78.7613 	 
C 	 14.7833 	 -8.78659 	 79.5546 	 
H 	 15.0535 	 -7.38467 	 77.9465 	 
C 	 12.5149 	 -6.03748 	 78.2507 	 
H 	 11.4343 	 -5.88608 	 78.5773 	 
H 	 12.6252 	 -6.39889 	 77.2656 	 
C 	 13.107 	 -4.72186 	 78.4205 	 
H 	 12.9351 	 -4.38083 	 79.4646 	 
H 	 14.2059 	 -4.76436 	 78.3305 	 
C 	 12.4184 	 -3.70641 	 77.4753 	 
H 	 11.3305 	 -3.83431 	 77.4447 	 
H 	 12.7781 	 -2.7009 	 77.656 	 
H 	 12.8071 	 -3.97849 	 76.506 	 
S 	 16.0787 	 -11.2348 	 79.1023 	 
C 	 17.7133 	 -11.3311 	 79.4565 	 
C 	 18.3263 	 -10.1564 	 79.8094 	 
C 	 17.3839 	 -9.06388 	 79.7526 	 
C 	 16.0856 	 -9.50803 	 79.5367 	 
H 	 19.3431 	 -10.1133 	 80.1243 	 
C 	 17.8259 	 -7.68968 	 80.1062 	 
H 	 17.3004 	 -7.03707 	 79.3459 	 
H 	 18.9286 	 -7.53811 	 79.9901 	 
C 	 17.3982 	 -7.26433 	 81.5073 	 
H 	 17.7278 	 -7.97391 	 82.176 	 
H 	 16.2828 	 -7.19336 	 81.4227 	 
C 	 18.1357 	 -5.91664 	 81.7835 	 
H 	 17.9262 	 -5.22498 	 80.964 	 
H 	 19.2055 	 -6.01811 	 81.7383 	 
H 	 17.8564 	 -5.41822 	 82.6739 	 
H 	 11.3831 	 -7.65071 	 80.2107 	 
H 	 18.3287 	 -12.2098 	 79.3477 	 
