34

S 	 -22.101 	 -1.66121 	 79.2505 	 
C 	 -20.9438 	 -2.42505 	 78.1325 	 
C 	 -19.7438 	 -2.55557 	 78.7658 	 
C 	 -19.72 	 -2.12327 	 80.1516 	 
C 	 -20.9631 	 -1.69343 	 80.59 	 
H 	 -18.8777 	 -2.19006 	 80.8686 	 
C 	 -18.4096 	 -2.89945 	 78.0392 	 
H 	 -17.7645 	 -2.08803 	 77.9701 	 
H 	 -18.7651 	 -3.11539 	 77.0399 	 
C 	 -17.6848 	 -4.07256 	 78.6316 	 
H 	 -17.5259 	 -3.80426 	 79.7003 	 
H 	 -18.283 	 -4.96948 	 78.6386 	 
C 	 -16.4138 	 -4.33255 	 77.9435 	 
H 	 -16.6569 	 -4.8408 	 77.0099 	 
H 	 -15.7932 	 -3.47272 	 77.6966 	 
H 	 -15.8795 	 -5.08495 	 78.4963 	 
S 	 -22.2695 	 0.213718 	 81.9802 	 
C 	 -22.0607 	 0.308599 	 83.6354 	 
C 	 -21.6377 	 -0.897201 	 84.125 	 
C 	 -21.0082 	 -1.77518 	 83.1441 	 
C 	 -21.3807 	 -1.3189 	 81.903 	 
H 	 -21.6202 	 -1.04633 	 85.2038 	 
C 	 -20.2573 	 -3.05912 	 83.6257 	 
H 	 -19.5756 	 -2.71104 	 84.3306 	 
H 	 -19.7105 	 -3.5245 	 82.7937 	 
C 	 -21.0672 	 -4.09119 	 84.4505 	 
H 	 -21.7468 	 -4.70242 	 83.7736 	 
H 	 -21.8027 	 -3.55704 	 85.1006 	 
C 	 -20.2885 	 -5.24402 	 85.2116 	 
H 	 -20.9082 	 -5.79364 	 85.9119 	 
H 	 -19.3227 	 -4.96439 	 85.7518 	 
H 	 -19.9046 	 -5.86808 	 84.502 	 
H 	 -21.0141 	 -2.59708 	 77.0912 	 
H 	 -22.4757 	 1.04703 	 84.235 	 
