34

S 	 -0.0182565 	 -11.0059 	 92.2772 	 
C 	 0.464923 	 -10.8369 	 93.9295 	 
C 	 -0.289094 	 -11.6096 	 94.8095 	 
C 	 -1.44653 	 -12.116 	 94.0744 	 
C 	 -1.43163 	 -11.9009 	 92.7335 	 
H 	 -2.20655 	 -12.7247 	 94.5505 	 
C 	 -0.0983937 	 -11.7893 	 96.3156 	 
H 	 0.934608 	 -12.0287 	 96.5661 	 
H 	 -0.723397 	 -12.5684 	 96.7048 	 
C 	 -0.628807 	 -10.6593 	 97.1893 	 
H 	 0.07325 	 -9.83325 	 96.9768 	 
H 	 -1.56326 	 -10.2957 	 96.8072 	 
C 	 -0.555788 	 -11.1045 	 98.6945 	 
H 	 -0.744771 	 -10.2074 	 99.3301 	 
H 	 -1.36081 	 -11.7635 	 99.0226 	 
H 	 0.41862 	 -11.5637 	 99.0013 	 
S 	 -4.09083 	 -11.6926 	 91.6949 	 
C 	 -4.5866 	 -12.927 	 90.6161 	 
C 	 -3.53415 	 -13.7523 	 90.2621 	 
C 	 -2.2485 	 -13.4296 	 90.8783 	 
C 	 -2.41438 	 -12.3658 	 91.8169 	 
H 	 -3.75255 	 -14.3637 	 89.4165 	 
C 	 -0.905168 	 -13.9938 	 90.4516 	 
H 	 -0.517938 	 -14.7354 	 91.2333 	 
H 	 -0.197209 	 -13.2428 	 90.4603 	 
C 	 -0.885021 	 -14.645 	 89.0451 	 
H 	 -1.51482 	 -14.109 	 88.4182 	 
H 	 -1.32391 	 -15.6151 	 89.182 	 
C 	 0.519026 	 -14.7673 	 88.4149 	 
H 	 1.21301 	 -13.8877 	 88.2945 	 
H 	 0.263399 	 -15.1596 	 87.3923 	 
H 	 1.08723 	 -15.4987 	 88.8887 	 
H 	 1.25671 	 -10.2343 	 94.4071 	 
H 	 -5.52905 	 -13.0219 	 90.1485 	 
