34

S 	 48.507 	 27.3633 	 44.165 	 
C 	 50.0954 	 28.0912 	 43.6698 	 
C 	 50.9419 	 27.1598 	 43.1092 	 
C 	 50.2933 	 25.9691 	 42.904 	 
C 	 49.0233 	 25.8776 	 43.451 	 
H 	 50.7907 	 25.125 	 42.5253 	 
C 	 52.4457 	 27.371 	 42.8739 	 
H 	 53.1652 	 26.8996 	 43.6428 	 
H 	 52.6989 	 28.4197 	 42.8912 	 
C 	 52.9349 	 26.7316 	 41.5896 	 
H 	 52.677 	 25.6626 	 41.6051 	 
H 	 52.567 	 27.0773 	 40.6502 	 
C 	 54.4448 	 26.6708 	 41.55 	 
H 	 54.9409 	 26.3306 	 42.4434 	 
H 	 54.8718 	 26.0753 	 40.7204 	 
H 	 54.9325 	 27.6103 	 41.2541 	 
S 	 48.2769 	 23.7916 	 45.0791 	 
C 	 47.2672 	 22.5461 	 44.404 	 
C 	 46.8571 	 22.8003 	 43.1321 	 
C 	 47.4315 	 23.9624 	 42.6218 	 
C 	 48.3237 	 24.5743 	 43.4854 	 
H 	 46.2204 	 22.0836 	 42.6675 	 
C 	 47.2132 	 24.3794 	 41.1364 	 
H 	 46.8285 	 25.3629 	 41.1695 	 
H 	 46.4678 	 23.9194 	 40.6656 	 
C 	 48.4546 	 24.2917 	 40.2276 	 
H 	 48.6879 	 23.2406 	 40.0291 	 
H 	 49.3182 	 24.7406 	 40.7175 	 
C 	 48.2003 	 25.1367 	 38.9448 	 
H 	 47.9819 	 26.1586 	 39.1095 	 
H 	 47.4988 	 24.7951 	 38.2232 	 
H 	 49.1423 	 25.2799 	 38.3751 	 
H 	 50.4786 	 29.0665 	 43.9549 	 
H 	 47.0286 	 21.6273 	 44.9415 	 
