34

S 	 -24.2109 	 -8.24252 	 86.791 	 
C 	 -24.6531 	 -9.91165 	 86.5358 	 
C 	 -23.5698 	 -10.6879 	 86.1313 	 
C 	 -22.4761 	 -9.80808 	 85.7599 	 
C 	 -22.6027 	 -8.51266 	 86.0743 	 
H 	 -21.5454 	 -10.0672 	 85.3363 	 
C 	 -23.4945 	 -12.1077 	 85.7172 	 
H 	 -22.6195 	 -12.2459 	 85.1252 	 
H 	 -24.2613 	 -12.2342 	 84.9549 	 
C 	 -23.6544 	 -13.2518 	 86.774 	 
H 	 -24.5427 	 -12.9885 	 87.3654 	 
H 	 -23.8633 	 -14.1658 	 86.2093 	 
C 	 -22.3315 	 -13.4541 	 87.5761 	 
H 	 -21.4765 	 -13.9129 	 87.0605 	 
H 	 -22.0264 	 -12.5626 	 88.1683 	 
H 	 -22.5776 	 -14.1778 	 88.3067 	 
S 	 -21.115 	 -6.27352 	 86.8902 	 
C 	 -20.2214 	 -5.39971 	 85.7112 	 
C 	 -20.2764 	 -6.01183 	 84.5019 	 
C 	 -21.0783 	 -7.19164 	 84.4739 	 
C 	 -21.7277 	 -7.41804 	 85.6855 	 
H 	 -19.6701 	 -5.5984 	 83.6006 	 
C 	 -21.3144 	 -8.08812 	 83.1811 	 
H 	 -21.2028 	 -9.12501 	 83.4697 	 
H 	 -20.5063 	 -8.00707 	 82.5311 	 
C 	 -22.7164 	 -7.92639 	 82.6056 	 
H 	 -22.7813 	 -6.90768 	 82.1893 	 
H 	 -23.4654 	 -8.04083 	 83.468 	 
C 	 -23.1331 	 -8.95258 	 81.5881 	 
H 	 -22.3703 	 -8.81075 	 80.8106 	 
H 	 -24.0693 	 -8.70565 	 81.1943 	 
H 	 -23.0478 	 -9.98052 	 82.0164 	 
H 	 -25.5929 	 -10.4264 	 86.7264 	 
H 	 -19.7974 	 -4.38493 	 85.6826 	 
