34

S 	 -45.4547 	 38.9032 	 77.7262 	 
C 	 -46.4593 	 39.647 	 78.9615 	 
C 	 -45.7019 	 40.4708 	 79.8012 	 
C 	 -44.3068 	 40.3719 	 79.5248 	 
C 	 -44.0126 	 39.5082 	 78.489 	 
H 	 -43.5144 	 40.9217 	 79.9756 	 
C 	 -46.2732 	 41.2967 	 80.9019 	 
H 	 -47.3334 	 41.1819 	 80.8708 	 
H 	 -46.1053 	 42.3931 	 80.8354 	 
C 	 -45.8112 	 40.7662 	 82.2452 	 
H 	 -45.9137 	 39.7492 	 82.1716 	 
H 	 -44.7639 	 40.9905 	 82.3206 	 
C 	 -46.5942 	 41.3682 	 83.4714 	 
H 	 -46.1862 	 41.1007 	 84.4028 	 
H 	 -46.469 	 42.4531 	 83.5574 	 
H 	 -47.6972 	 41.0354 	 83.4503 	 
S 	 -42.1083 	 40.5755 	 76.9357 	 
C 	 -40.5631 	 39.8114 	 76.7315 	 
C 	 -40.4323 	 38.8742 	 77.7466 	 
C 	 -41.6714 	 38.4857 	 78.3565 	 
C 	 -42.7213 	 39.2774 	 77.9198 	 
H 	 -39.4231 	 38.4631 	 77.9099 	 
C 	 -41.6313 	 37.3628 	 79.3865 	 
H 	 -42.3167 	 37.583 	 80.129 	 
H 	 -40.6592 	 37.2405 	 79.8172 	 
C 	 -42.0345 	 36.0233 	 78.7956 	 
H 	 -43.0476 	 35.7683 	 78.8634 	 
H 	 -41.5747 	 35.2292 	 79.4643 	 
C 	 -41.5048 	 35.6348 	 77.4071 	 
H 	 -41.9866 	 36.2321 	 76.6096 	 
H 	 -41.5851 	 34.5686 	 77.3149 	 
H 	 -40.4764 	 35.7884 	 77.2686 	 
H 	 -47.5781 	 39.5113 	 79.0275 	 
H 	 -39.7522 	 40.22 	 76.0504 	 
