34

S 	 -72.6955 	 38.6608 	 121.57 	 
C 	 -71.1191 	 38.5258 	 122.354 	 
C 	 -70.3608 	 37.6936 	 121.58 	 
C 	 -71.1338 	 37.0112 	 120.603 	 
C 	 -72.4533 	 37.4627 	 120.363 	 
H 	 -70.7388 	 36.2252 	 120.016 	 
C 	 -69.0034 	 37.188 	 122.021 	 
H 	 -68.3806 	 38.0484 	 122.361 	 
H 	 -68.6756 	 36.674 	 121.099 	 
C 	 -68.9 	 36.0757 	 123.138 	 
H 	 -67.8356 	 35.9668 	 123.371 	 
H 	 -69.4704 	 36.391 	 123.923 	 
C 	 -69.6188 	 34.7614 	 122.676 	 
H 	 -70.5498 	 35.0449 	 122.16 	 
H 	 -69.081 	 34.2656 	 121.89 	 
H 	 -69.6844 	 34.0133 	 123.414 	 
S 	 -74.9531 	 38.0605 	 119.347 	 
C 	 -75.6253 	 36.9929 	 118.138 	 
C 	 -74.9327 	 35.7706 	 118.102 	 
C 	 -73.7259 	 35.8138 	 118.844 	 
C 	 -73.5717 	 36.9698 	 119.615 	 
H 	 -75.1946 	 34.9974 	 117.393 	 
C 	 -72.9471 	 34.5993 	 119.009 	 
H 	 -71.8722 	 34.878 	 118.904 	 
H 	 -73.2192 	 33.9137 	 118.23 	 
C 	 -73.3832 	 33.7899 	 120.283 	 
H 	 -74.498 	 33.8129 	 120.135 	 
H 	 -73.15 	 34.3436 	 121.203 	 
C 	 -72.8828 	 32.3155 	 120.519 	 
H 	 -73.2931 	 31.6262 	 119.802 	 
H 	 -73.0841 	 32.0066 	 121.567 	 
H 	 -71.8389 	 32.2322 	 120.312 	 
H 	 -70.7122 	 38.996 	 123.266 	 
H 	 -76.632 	 37.1995 	 117.661 	 
