34

S 	 -7.4968 	 44.6836 	 40.5773 	 
C 	 -6.00733 	 44.6937 	 39.7155 	 
C 	 -5.12594 	 43.8168 	 40.3551 	 
C 	 -5.46629 	 43.3777 	 41.645 	 
C 	 -6.75599 	 43.878 	 41.9255 	 
H 	 -4.98398 	 42.6459 	 42.3047 	 
C 	 -3.7854 	 43.3061 	 39.7503 	 
H 	 -3.70034 	 43.7212 	 38.764 	 
H 	 -3.83246 	 42.1993 	 39.5879 	 
C 	 -2.53624 	 43.7244 	 40.5081 	 
H 	 -2.49964 	 43.1563 	 41.4236 	 
H 	 -1.74897 	 43.4009 	 39.8759 	 
C 	 -2.35169 	 45.2637 	 40.8211 	 
H 	 -3.09184 	 45.6762 	 41.4808 	 
H 	 -1.47667 	 45.6074 	 41.4277 	 
H 	 -2.42479 	 45.8481 	 39.9 	 
S 	 -8.89718 	 42.7909 	 43.0485 	 
C 	 -8.94016 	 42.6786 	 44.8206 	 
C 	 -7.93669 	 43.3861 	 45.4409 	 
C 	 -7.00118 	 43.9189 	 44.5005 	 
C 	 -7.38791 	 43.6737 	 43.1904 	 
H 	 -7.78821 	 43.3104 	 46.4777 	 
C 	 -5.67759 	 44.5595 	 44.9407 	 
H 	 -5.13294 	 44.8321 	 44.0443 	 
H 	 -5.12024 	 43.7711 	 45.4684 	 
C 	 -5.68271 	 45.7773 	 45.888 	 
H 	 -6.05173 	 45.6006 	 46.9185 	 
H 	 -6.42318 	 46.398 	 45.3997 	 
C 	 -4.25894 	 46.4101 	 46.1041 	 
H 	 -3.89379 	 46.7738 	 45.1282 	 
H 	 -3.50291 	 45.8622 	 46.7342 	 
H 	 -4.50253 	 47.315 	 46.6908 	 
H 	 -5.97444 	 45.0177 	 38.6806 	 
H 	 -9.64284 	 41.9584 	 45.3256 	 
