34

S 	 5.30872 	 -13.2514 	 62.1791 	 
C 	 5.83582 	 -13.4265 	 63.8433 	 
C 	 5.28357 	 -12.4288 	 64.637 	 
C 	 4.41678 	 -11.516 	 63.9242 	 
C 	 4.26141 	 -11.9108 	 62.5524 	 
H 	 3.95838 	 -10.6262 	 64.3056 	 
C 	 5.65885 	 -12.1903 	 66.0592 	 
H 	 5.14168 	 -11.3022 	 66.391 	 
H 	 6.73307 	 -11.9513 	 65.9185 	 
C 	 5.313 	 -13.2875 	 67.0044 	 
H 	 5.57478 	 -14.229 	 66.7136 	 
H 	 5.85961 	 -12.9479 	 67.9383 	 
C 	 3.7894 	 -13.2722 	 67.1905 	 
H 	 3.69459 	 -13.8859 	 68.1395 	 
H 	 3.27819 	 -12.3389 	 67.3415 	 
H 	 3.28644 	 -13.8593 	 66.3496 	 
S 	 4.26945 	 -10.6882 	 60.0696 	 
C 	 2.72378 	 -10.3558 	 59.322 	 
C 	 1.69312 	 -10.7485 	 60.1662 	 
C 	 2.1051 	 -11.4704 	 61.2966 	 
C 	 3.43494 	 -11.4078 	 61.4794 	 
H 	 0.693156 	 -10.5952 	 59.7885 	 
C 	 1.16419 	 -12.072 	 62.2415 	 
H 	 0.216605 	 -12.1049 	 61.7419 	 
H 	 0.975848 	 -11.2356 	 62.9258 	 
C 	 1.45601 	 -13.4607 	 62.8862 	 
H 	 2.3725 	 -13.3939 	 63.4875 	 
H 	 1.76668 	 -14.1174 	 61.9992 	 
C 	 0.153475 	 -14.0734 	 63.5527 	 
H 	 0.144272 	 -15.0615 	 64.0753 	 
H 	 -0.660728 	 -14.1908 	 62.8139 	 
H 	 -0.358227 	 -13.3248 	 64.1343 	 
H 	 6.59448 	 -14.1296 	 64.1407 	 
H 	 2.50705 	 -9.74346 	 58.5001 	 
