34

S 	 42.2633 	 13.7904 	 87.1433 	 
C 	 43.7633 	 14.06 	 86.2748 	 
C 	 44.7035 	 13.0521 	 86.547 	 
C 	 43.9648 	 11.9111 	 87.0292 	 
C 	 42.6252 	 12.1427 	 87.4355 	 
H 	 44.4305 	 10.9534 	 86.9935 	 
C 	 46.1145 	 12.948 	 86.0699 	 
H 	 46.1831 	 11.897 	 85.5715 	 
H 	 46.7541 	 13.096 	 86.9394 	 
C 	 46.4897 	 14.0227 	 84.9894 	 
H 	 47.438 	 13.6276 	 84.4566 	 
H 	 45.7294 	 14.1897 	 84.2196 	 
C 	 47.0211 	 15.3692 	 85.5212 	 
H 	 46.2749 	 15.6088 	 86.1823 	 
H 	 47.8553 	 15.2335 	 86.2458 	 
H 	 47.1429 	 16.2545 	 84.8598 	 
S 	 39.9532 	 11.7816 	 87.7293 	 
C 	 39.3481 	 10.3815 	 88.6144 	 
C 	 40.3749 	 9.50899 	 88.8798 	 
C 	 41.6559 	 9.92427 	 88.4848 	 
C 	 41.601 	 11.1709 	 87.7876 	 
H 	 40.1238 	 8.61684 	 89.4371 	 
C 	 42.8472 	 9.10115 	 88.8102 	 
H 	 43.1394 	 8.74061 	 87.8367 	 
H 	 42.4643 	 8.18635 	 89.3499 	 
C 	 44.0201 	 9.72979 	 89.545 	 
H 	 43.8626 	 9.69612 	 90.6492 	 
H 	 44.2032 	 10.7534 	 89.2848 	 
C 	 45.3649 	 9.02235 	 89.343 	 
H 	 46.1304 	 9.39559 	 89.9889 	 
H 	 45.7093 	 9.17259 	 88.3245 	 
H 	 45.1685 	 7.972 	 89.4935 	 
H 	 44.2063 	 15.0238 	 85.8863 	 
H 	 38.3301 	 10.3043 	 88.9131 	 
