34

S 	 -106.064 	 40.1221 	 129.961 	 
C 	 -104.632 	 39.855 	 130.914 	 
C 	 -103.577 	 39.3706 	 130.161 	 
C 	 -103.926 	 39.2607 	 128.773 	 
C 	 -105.251 	 39.5404 	 128.525 	 
H 	 -103.353 	 38.8538 	 127.956 	 
C 	 -102.229 	 38.8105 	 130.656 	 
H 	 -102.404 	 37.7388 	 130.797 	 
H 	 -101.933 	 39.2209 	 131.588 	 
C 	 -101.063 	 38.9947 	 129.597 	 
H 	 -101.285 	 38.3351 	 128.79 	 
H 	 -101.034 	 39.9605 	 129.174 	 
C 	 -99.6305 	 38.8593 	 130.118 	 
H 	 -99.3015 	 37.9548 	 130.639 	 
H 	 -99.0318 	 38.7722 	 129.165 	 
H 	 -99.1877 	 39.7578 	 130.702 	 
S 	 -106.703 	 37.7117 	 127.055 	 
C 	 -107.231 	 38.2181 	 125.46 	 
C 	 -106.926 	 39.5503 	 125.254 	 
C 	 -106.246 	 40.1792 	 126.336 	 
C 	 -105.969 	 39.2921 	 127.335 	 
H 	 -107.073 	 40.0817 	 124.3 	 
C 	 -105.831 	 41.6621 	 126.196 	 
H 	 -104.908 	 41.8425 	 126.695 	 
H 	 -106.497 	 42.3001 	 126.786 	 
C 	 -105.794 	 42.2685 	 124.78 	 
H 	 -106.716 	 42.2244 	 124.231 	 
H 	 -105.156 	 41.5742 	 124.238 	 
C 	 -105.124 	 43.6391 	 124.736 	 
H 	 -104.622 	 43.5023 	 123.81 	 
H 	 -104.426 	 43.7356 	 125.558 	 
H 	 -105.838 	 44.4697 	 124.781 	 
H 	 -104.533 	 40.2251 	 131.922 	 
H 	 -107.894 	 37.7277 	 124.768 	 
