34

S 	 -15.6293 	 43.5954 	 35.8527 	 
C 	 -14.6937 	 42.3865 	 36.7931 	 
C 	 -13.7159 	 41.8573 	 35.9552 	 
C 	 -13.6492 	 42.5369 	 34.7098 	 
C 	 -14.6144 	 43.499 	 34.4647 	 
H 	 -12.9284 	 42.2996 	 33.908 	 
C 	 -12.7032 	 40.8085 	 36.382 	 
H 	 -12.9197 	 40.3683 	 37.2897 	 
H 	 -11.7704 	 41.2712 	 36.4581 	 
C 	 -12.5379 	 39.6242 	 35.3448 	 
H 	 -12.3931 	 40.1775 	 34.4579 	 
H 	 -11.731 	 38.9241 	 35.7037 	 
C 	 -13.8142 	 38.6773 	 35.2474 	 
H 	 -13.6811 	 37.8437 	 34.5522 	 
H 	 -13.8388 	 38.09 	 36.2114 	 
H 	 -14.735 	 39.2728 	 35.0673 	 
S 	 -16.7546 	 44.2342 	 32.9869 	 
C 	 -16.5058 	 44.9232 	 31.3832 	 
C 	 -15.2022 	 45.1551 	 31.1454 	 
C 	 -14.3378 	 44.6932 	 32.1772 	 
C 	 -15.0217 	 44.1326 	 33.2323 	 
H 	 -15.0167 	 45.4656 	 30.1827 	 
C 	 -12.8458 	 44.6715 	 31.9228 	 
H 	 -12.7447 	 44.8634 	 30.8034 	 
H 	 -12.4638 	 43.6558 	 32.0962 	 
C 	 -12.0336 	 45.7647 	 32.6653 	 
H 	 -12.2654 	 45.6805 	 33.8154 	 
H 	 -12.431 	 46.7599 	 32.4797 	 
C 	 -10.5925 	 45.9171 	 32.3077 	 
H 	 -10.6163 	 45.9831 	 31.1519 	 
H 	 -9.99062 	 45.0401 	 32.5437 	 
H 	 -10.0294 	 46.805 	 32.7202 	 
H 	 -14.9781 	 41.9443 	 37.769 	 
H 	 -17.3548 	 45.2436 	 30.7492 	 
