34

S 	 0.0591936 	 36.0662 	 38.3 	 
C 	 1.32551 	 36.1439 	 37.104 	 
C 	 1.11391 	 35.2216 	 36.0527 	 
C 	 -0.100037 	 34.4782 	 36.3316 	 
C 	 -0.782027 	 34.7805 	 37.4919 	 
H 	 -0.489612 	 33.6975 	 35.7072 	 
C 	 1.92768 	 35.1551 	 34.8378 	 
H 	 2.78467 	 35.8542 	 34.9128 	 
H 	 1.23889 	 35.5832 	 34.0719 	 
C 	 2.2979 	 33.7252 	 34.3104 	 
H 	 2.95049 	 33.2224 	 34.9803 	 
H 	 1.3769 	 33.1256 	 34.303 	 
C 	 2.99761 	 33.7731 	 32.9391 	 
H 	 2.33575 	 34.2727 	 32.2142 	 
H 	 3.98771 	 34.2502 	 32.8939 	 
H 	 3.19664 	 32.759 	 32.5861 	 
S 	 -3.21865 	 35.3772 	 38.5899 	 
C 	 -4.40612 	 34.1268 	 38.6146 	 
C 	 -3.86128 	 32.8699 	 38.3504 	 
C 	 -2.4736 	 32.9131 	 37.9805 	 
C 	 -2.03475 	 34.2204 	 37.9465 	 
H 	 -4.62436 	 32.0426 	 38.4527 	 
C 	 -1.57857 	 31.7451 	 37.7288 	 
H 	 -1.65871 	 30.9607 	 38.5007 	 
H 	 -0.575209 	 32.0917 	 37.9417 	 
C 	 -1.70162 	 30.9389 	 36.351 	 
H 	 -1.57087 	 31.6039 	 35.4519 	 
H 	 -2.63984 	 30.4721 	 36.1971 	 
C 	 -0.588621 	 29.8493 	 36.2678 	 
H 	 0.288267 	 30.5338 	 36.2083 	 
H 	 -0.5823 	 29.257 	 35.3834 	 
H 	 -0.459742 	 29.2389 	 37.1355 	 
H 	 2.10875 	 36.8086 	 37.1219 	 
H 	 -5.48971 	 34.3753 	 38.7992 	 
