34

S 	 -6.78758 	 -9.60876 	 84.3567 	 
C 	 -7.47932 	 -10.0272 	 82.8299 	 
C 	 -8.37817 	 -9.02326 	 82.4943 	 
C 	 -8.46282 	 -7.92433 	 83.4508 	 
C 	 -7.59991 	 -8.08058 	 84.5267 	 
H 	 -9.11886 	 -7.08457 	 83.4479 	 
C 	 -9.20225 	 -9.03749 	 81.2245 	 
H 	 -9.93179 	 -9.8747 	 81.3008 	 
H 	 -8.64535 	 -9.35506 	 80.3605 	 
C 	 -10.0246 	 -7.7071 	 80.9613 	 
H 	 -10.6989 	 -7.47478 	 81.8213 	 
H 	 -9.40915 	 -6.83628 	 80.855 	 
C 	 -10.9596 	 -7.82909 	 79.8035 	 
H 	 -10.3729 	 -8.16457 	 78.9483 	 
H 	 -11.682 	 -8.59428 	 79.9909 	 
H 	 -11.2878 	 -6.90443 	 79.5008 	 
S 	 -7.23553 	 -8.08087 	 87.1413 	 
C 	 -7.50387 	 -6.57028 	 88.0885 	 
C 	 -7.50046 	 -5.50013 	 87.2269 	 
C 	 -7.4204 	 -5.87754 	 85.8234 	 
C 	 -7.29052 	 -7.22945 	 85.6443 	 
H 	 -7.66462 	 -4.48582 	 87.667 	 
C 	 -7.43742 	 -4.77926 	 84.8113 	 
H 	 -8.36401 	 -4.25961 	 84.8188 	 
H 	 -7.23879 	 -5.20583 	 83.8309 	 
C 	 -6.30854 	 -3.81659 	 85.13 	 
H 	 -5.37733 	 -4.35845 	 85.1926 	 
H 	 -6.48055 	 -3.33714 	 86.0758 	 
C 	 -6.13387 	 -2.64985 	 84.1275 	 
H 	 -6.03749 	 -2.82949 	 83.0655 	 
H 	 -5.19834 	 -2.15274 	 84.4442 	 
H 	 -6.869 	 -1.86056 	 84.2419 	 
H 	 -7.20205 	 -10.8055 	 82.0892 	 
H 	 -7.62806 	 -6.48182 	 89.1367 	 
