34

S 	 1.06712 	 -10.0531 	 88.7854 	 
C 	 -0.0413275 	 -10.0221 	 90.2201 	 
C 	 -0.3142 	 -11.3204 	 90.6119 	 
C 	 0.295661 	 -12.2723 	 89.769 	 
C 	 1.12781 	 -11.7491 	 88.8003 	 
H 	 0.121144 	 -13.32 	 89.7694 	 
C 	 -1.23589 	 -11.6437 	 91.7649 	 
H 	 -0.875676 	 -11.0143 	 92.6031 	 
H 	 -1.11228 	 -12.7065 	 92.0155 	 
C 	 -2.76315 	 -11.4273 	 91.5735 	 
H 	 -2.90556 	 -10.3768 	 91.2791 	 
H 	 -3.33643 	 -11.9922 	 90.7764 	 
C 	 -3.57001 	 -11.6053 	 92.8308 	 
H 	 -3.54905 	 -12.6008 	 93.2288 	 
H 	 -3.26752 	 -10.8519 	 93.5353 	 
H 	 -4.5714 	 -11.3236 	 92.5683 	 
S 	 2.37173 	 -11.5356 	 86.4508 	 
C 	 2.86221 	 -12.9429 	 85.5479 	 
C 	 2.82609 	 -14.0594 	 86.3081 	 
C 	 2.05676 	 -13.7932 	 87.5288 	 
C 	 1.73249 	 -12.4915 	 87.7268 	 
H 	 3.15232 	 -15.0012 	 85.9848 	 
C 	 1.87358 	 -14.9133 	 88.5431 	 
H 	 1.78939 	 -14.4559 	 89.4959 	 
H 	 2.76708 	 -15.5986 	 88.7322 	 
C 	 0.590809 	 -15.7615 	 88.3743 	 
H 	 0.595972 	 -16.5561 	 87.644 	 
H 	 -0.0888377 	 -15.0447 	 87.9773 	 
C 	 0.0319225 	 -16.4419 	 89.6696 	 
H 	 -1.09292 	 -16.6943 	 89.4579 	 
H 	 0.122575 	 -15.8127 	 90.5175 	 
H 	 0.525503 	 -17.3671 	 89.8798 	 
H 	 -0.406003 	 -9.1678 	 90.8208 	 
H 	 3.26655 	 -12.8477 	 84.6164 	 
