34

S 	 44.298 	 8.66843 	 80.7884 	 
C 	 44.5611 	 7.93761 	 82.3234 	 
C 	 45.2018 	 8.70963 	 83.2028 	 
C 	 45.6063 	 9.89319 	 82.6274 	 
C 	 45.1898 	 10.0832 	 81.3237 	 
H 	 46.2926 	 10.6435 	 83.018 	 
C 	 45.5717 	 8.36462 	 84.6126 	 
H 	 45.5802 	 7.27541 	 84.8106 	 
H 	 44.7364 	 8.76003 	 85.2155 	 
C 	 46.7837 	 8.99466 	 85.2156 	 
H 	 46.683 	 10.1177 	 85.3468 	 
H 	 46.8804 	 8.62052 	 86.2734 	 
C 	 47.9493 	 8.6037 	 84.4802 	 
H 	 47.9461 	 8.87995 	 83.4105 	 
H 	 48.8446 	 8.93199 	 84.9208 	 
H 	 48.0596 	 7.50624 	 84.4252 	 
S 	 46.1228 	 10.8514 	 78.8371 	 
C 	 46.4167 	 12.5419 	 78.5176 	 
C 	 46.135 	 13.3001 	 79.6489 	 
C 	 45.6992 	 12.5154 	 80.7407 	 
C 	 45.5384 	 11.1838 	 80.4228 	 
H 	 46.3223 	 14.3701 	 79.6326 	 
C 	 45.1128 	 13.147 	 81.9502 	 
H 	 44.6413 	 12.3155 	 82.4937 	 
H 	 44.172 	 13.7202 	 81.6729 	 
C 	 45.9962 	 13.9427 	 82.8711 	 
H 	 46.8461 	 13.2547 	 83.2321 	 
H 	 45.4323 	 14.0098 	 83.7608 	 
C 	 46.5601 	 15.2772 	 82.481 	 
H 	 47.0341 	 15.7157 	 83.34 	 
H 	 45.6628 	 15.8633 	 82.0832 	 
H 	 47.3194 	 15.3062 	 81.6553 	 
H 	 44.1719 	 6.96968 	 82.5916 	 
H 	 46.8803 	 12.9425 	 77.581 	 
