34

S 	 -113.475 	 48.4746 	 132.804 	 
C 	 -113.101 	 50.1483 	 132.517 	 
C 	 -114.181 	 50.9776 	 132.78 	 
C 	 -115.331 	 50.2843 	 133.285 	 
C 	 -115.173 	 48.8714 	 133.284 	 
H 	 -116.282 	 50.7594 	 133.466 	 
C 	 -114.142 	 52.4845 	 132.563 	 
H 	 -114.973 	 52.7878 	 131.903 	 
H 	 -113.312 	 52.8625 	 132.083 	 
C 	 -114.22 	 53.2421 	 133.953 	 
H 	 -115.207 	 53.0094 	 134.455 	 
H 	 -113.416 	 52.8991 	 134.58 	 
C 	 -114.293 	 54.731 	 133.822 	 
H 	 -114.144 	 55.1521 	 134.784 	 
H 	 -113.476 	 54.8546 	 133.157 	 
H 	 -115.189 	 55.1857 	 133.387 	 
S 	 -117.477 	 47.4505 	 132.77 	 
C 	 -118.081 	 46.3715 	 134.029 	 
C 	 -117.244 	 46.3182 	 135.082 	 
C 	 -116.035 	 47.0478 	 134.897 	 
C 	 -116.075 	 47.8531 	 133.769 	 
H 	 -117.392 	 45.6484 	 135.903 	 
C 	 -114.941 	 47.0591 	 136.05 	 
H 	 -113.99 	 47.083 	 135.51 	 
H 	 -114.829 	 46.1397 	 136.566 	 
C 	 -114.944 	 48.1797 	 137.019 	 
H 	 -115.787 	 48.1448 	 137.657 	 
H 	 -114.853 	 49.1907 	 136.494 	 
C 	 -113.637 	 48.1809 	 137.932 	 
H 	 -112.842 	 48.6029 	 137.293 	 
H 	 -113.278 	 47.1725 	 138.221 	 
H 	 -113.757 	 48.9463 	 138.681 	 
H 	 -112.237 	 50.5401 	 132.086 	 
H 	 -118.897 	 45.6846 	 134.005 	 
