34

S 	 -39.1929 	 54.1941 	 108.966 	 
C 	 -39.6832 	 55.0877 	 110.42 	 
C 	 -39.8482 	 54.1228 	 111.43 	 
C 	 -39.2615 	 52.8349 	 111.157 	 
C 	 -38.7588 	 52.778 	 109.825 	 
H 	 -39.2514 	 51.9711 	 111.768 	 
C 	 -40.4098 	 54.3219 	 112.79 	 
H 	 -40.3854 	 55.3891 	 113.063 	 
H 	 -39.6408 	 53.8482 	 113.422 	 
C 	 -41.8694 	 53.8268 	 113.08 	 
H 	 -41.9026 	 52.8006 	 113.01 	 
H 	 -42.3121 	 54.0699 	 114.076 	 
C 	 -42.9664 	 54.4012 	 112.133 	 
H 	 -43.0639 	 55.473 	 112.33 	 
H 	 -42.7978 	 54.2216 	 111.066 	 
H 	 -43.8516 	 53.8413 	 112.18 	 
S 	 -36.4576 	 51.581 	 108.875 	 
C 	 -36.4383 	 49.8147 	 108.656 	 
C 	 -37.7197 	 49.3333 	 108.801 	 
C 	 -38.7247 	 50.303 	 109.051 	 
C 	 -38.2351 	 51.5533 	 109.233 	 
H 	 -37.8506 	 48.2285 	 108.654 	 
C 	 -40.1373 	 49.7474 	 109.194 	 
H 	 -40.5533 	 49.2739 	 108.248 	 
H 	 -40.7856 	 50.5727 	 109.411 	 
C 	 -40.3495 	 48.9142 	 110.473 	 
H 	 -40.2148 	 49.476 	 111.378 	 
H 	 -39.7753 	 48.015 	 110.375 	 
C 	 -41.7856 	 48.4329 	 110.48 	 
H 	 -42.1283 	 48.0099 	 109.55 	 
H 	 -42.4407 	 49.2875 	 110.698 	 
H 	 -41.7757 	 47.7063 	 111.304 	 
H 	 -39.985 	 56.0975 	 110.479 	 
H 	 -35.6029 	 49.1808 	 108.517 	 
