34

S 	 59.739 	 -4.87718 	 87.7381 	 
C 	 58.4047 	 -4.31752 	 88.7867 	 
C 	 58.8333 	 -3.54576 	 89.8332 	 
C 	 60.2277 	 -3.49237 	 89.8157 	 
C 	 60.8548 	 -4.1671 	 88.7856 	 
H 	 60.8332 	 -2.96552 	 90.6 	 
C 	 57.9711 	 -2.75959 	 90.7184 	 
H 	 56.9954 	 -2.62209 	 90.1642 	 
H 	 58.4619 	 -1.74993 	 90.7391 	 
C 	 57.6663 	 -3.47369 	 92.1128 	 
H 	 56.6802 	 -3.06109 	 92.4929 	 
H 	 57.616 	 -4.60066 	 92.0279 	 
C 	 58.7679 	 -3.21297 	 93.1456 	 
H 	 58.8761 	 -2.11469 	 93.2036 	 
H 	 58.5979 	 -3.63987 	 94.0926 	 
H 	 59.7099 	 -3.60377 	 92.8262 	 
S 	 63.2101 	 -5.64095 	 88.6186 	 
C 	 64.6736 	 -4.84238 	 88.2878 	 
C 	 64.5174 	 -3.47689 	 88.0816 	 
C 	 63.1195 	 -3.10249 	 88.2625 	 
C 	 62.3089 	 -4.15893 	 88.5725 	 
H 	 65.4406 	 -2.88803 	 87.8491 	 
C 	 62.7153 	 -1.66754 	 88.0773 	 
H 	 61.6779 	 -1.42851 	 88.3139 	 
H 	 62.8666 	 -1.48508 	 86.9765 	 
C 	 63.7154 	 -0.57443 	 88.7136 	 
H 	 64.6164 	 -0.577108 	 88.1433 	 
H 	 63.9818 	 -0.719689 	 89.7881 	 
C 	 63.0551 	 0.872159 	 88.6002 	 
H 	 62.8642 	 1.3499 	 87.6482 	 
H 	 63.576 	 1.61512 	 89.3063 	 
H 	 62.0636 	 0.772289 	 89.0887 	 
H 	 57.345 	 -4.2724 	 88.4009 	 
H 	 65.6342 	 -5.40076 	 88.4994 	 
