34

S 	 44.504 	 22.247 	 88.5985 	 
C 	 45.8882 	 23.2951 	 88.5518 	 
C 	 47.0515 	 22.6811 	 88.9039 	 
C 	 46.8232 	 21.3105 	 89.188 	 
C 	 45.556 	 20.8384 	 88.9021 	 
H 	 47.5891 	 20.6448 	 89.5621 	 
C 	 48.2808 	 23.4458 	 89.4187 	 
H 	 48.5436 	 23.1359 	 90.4747 	 
H 	 48.1616 	 24.4848 	 89.6373 	 
C 	 49.4785 	 23.3425 	 88.4675 	 
H 	 49.9381 	 22.3249 	 88.3852 	 
H 	 49.1314 	 23.6238 	 87.4669 	 
C 	 50.6133 	 24.2407 	 89.0175 	 
H 	 50.3685 	 25.2655 	 88.8768 	 
H 	 50.8575 	 24.152 	 90.1088 	 
H 	 51.5264 	 23.9117 	 88.4262 	 
S 	 43.6207 	 19.4567 	 90.2534 	 
C 	 43.819 	 17.6792 	 90.3839 	 
C 	 44.7154 	 17.1378 	 89.494 	 
C 	 45.5204 	 18.2004 	 88.9759 	 
C 	 45.0624 	 19.472 	 89.2529 	 
H 	 44.697 	 16.075 	 89.2754 	 
C 	 46.7504 	 17.862 	 88.1115 	 
H 	 46.9345 	 18.7779 	 87.5907 	 
H 	 46.5498 	 17.069 	 87.4277 	 
C 	 47.9598 	 17.3393 	 88.9309 	 
H 	 48.7027 	 16.9416 	 88.29 	 
H 	 47.6595 	 16.4512 	 89.5185 	 
C 	 48.8307 	 18.3856 	 89.6756 	 
H 	 48.1337 	 18.6284 	 90.4507 	 
H 	 49.2313 	 19.2242 	 88.9985 	 
H 	 49.7416 	 17.9804 	 90.1503 	 
H 	 45.8377 	 24.3055 	 88.3384 	 
H 	 43.003 	 17.0823 	 90.8724 	 
