34

S 	 -99.519 	 39.6107 	 127.584 	 
C 	 -99.4488 	 39.041 	 129.242 	 
C 	 -98.3502 	 38.2556 	 129.506 	 
C 	 -97.3959 	 38.2875 	 128.408 	 
C 	 -97.7809 	 39.1156 	 127.409 	 
H 	 -96.4035 	 37.9207 	 128.423 	 
C 	 -97.9145 	 37.7359 	 130.835 	 
H 	 -98.6451 	 37.9354 	 131.664 	 
H 	 -96.9243 	 38.2779 	 130.993 	 
C 	 -97.8696 	 36.149 	 130.822 	 
H 	 -98.9188 	 35.8498 	 130.68 	 
H 	 -97.2822 	 36.0072 	 129.947 	 
C 	 -97.2929 	 35.6297 	 132.119 	 
H 	 -98.0868 	 35.7592 	 132.867 	 
H 	 -97.0029 	 34.5564 	 132.122 	 
H 	 -96.4281 	 36.2123 	 132.374 	 
S 	 -96.7782 	 38.5632 	 124.846 	 
C 	 -95.481 	 39.5704 	 124.227 	 
C 	 -95.4337 	 40.7891 	 124.939 	 
C 	 -96.2439 	 40.7678 	 126.069 	 
C 	 -96.9264 	 39.5569 	 126.274 	 
H 	 -94.9411 	 41.6725 	 124.556 	 
C 	 -96.3497 	 41.9827 	 127.055 	 
H 	 -95.3266 	 42.2683 	 127.142 	 
H 	 -96.6802 	 41.747 	 128.116 	 
C 	 -97.2004 	 43.1113 	 126.471 	 
H 	 -96.965 	 43.4806 	 125.578 	 
H 	 -97.1937 	 43.9149 	 127.185 	 
C 	 -98.6474 	 42.6653 	 126.334 	 
H 	 -98.5563 	 41.7658 	 125.615 	 
H 	 -99.2989 	 43.3258 	 125.761 	 
H 	 -99.0941 	 42.3334 	 127.222 	 
H 	 -100.269 	 39.2076 	 129.964 	 
H 	 -95.0107 	 39.334 	 123.275 	 
