34

S 	 8.7883 	 -7.90996 	 93.6143 	 
C 	 9.47753 	 -9.30082 	 94.2966 	 
C 	 10.8114 	 -9.18607 	 93.9947 	 
C 	 11.2085 	 -7.98564 	 93.3639 	 
C 	 10.1849 	 -7.1392 	 92.9659 	 
H 	 12.2112 	 -7.74498 	 93.1188 	 
C 	 11.7928 	 -10.1927 	 94.6217 	 
H 	 12.1192 	 -10.9291 	 93.8003 	 
H 	 11.2186 	 -10.8784 	 95.2637 	 
C 	 12.9167 	 -9.58352 	 95.4507 	 
H 	 13.5861 	 -10.4579 	 95.6148 	 
H 	 13.5639 	 -8.91787 	 94.8266 	 
C 	 12.4268 	 -8.70058 	 96.5868 	 
H 	 11.8133 	 -9.22682 	 97.3549 	 
H 	 13.3532 	 -8.31696 	 96.9538 	 
H 	 11.9238 	 -7.75459 	 96.2321 	 
S 	 9.25389 	 -5.59241 	 90.749 	 
C 	 9.69727 	 -3.94312 	 90.5552 	 
C 	 10.7125 	 -3.56576 	 91.4215 	 
C 	 11.0559 	 -4.64605 	 92.4197 	 
C 	 10.2547 	 -5.8185 	 92.2267 	 
H 	 11.149 	 -2.67128 	 91.2165 	 
C 	 12.102 	 -4.2541 	 93.4523 	 
H 	 13.053 	 -3.90472 	 93.0414 	 
H 	 12.4214 	 -5.15021 	 93.9666 	 
C 	 11.5693 	 -3.63586 	 94.7668 	 
H 	 10.7722 	 -4.18289 	 95.2259 	 
H 	 11.1766 	 -2.62663 	 94.4575 	 
C 	 12.6689 	 -3.53848 	 95.7892 	 
H 	 12.4071 	 -3.33905 	 96.7632 	 
H 	 13.464 	 -2.97964 	 95.3975 	 
H 	 13.1469 	 -4.44784 	 95.8333 	 
H 	 8.97049 	 -10.2226 	 94.6058 	 
H 	 9.33789 	 -3.39747 	 89.6912 	 
