34

S 	 31.4298 	 -1.05181 	 72.8044 	 
C 	 30.8766 	 0.567591 	 73.1332 	 
C 	 29.6298 	 0.764848 	 72.5199 	 
C 	 29.0873 	 -0.460558 	 71.9875 	 
C 	 29.9861 	 -1.48524 	 71.9868 	 
H 	 28.138 	 -0.655461 	 71.5015 	 
C 	 28.9081 	 2.15691 	 72.5127 	 
H 	 28.1499 	 2.17345 	 71.7094 	 
H 	 29.751 	 2.80023 	 72.3603 	 
C 	 28.1507 	 2.41402 	 73.8033 	 
H 	 27.2785 	 1.69194 	 73.752 	 
H 	 28.7159 	 2.19546 	 74.7137 	 
C 	 27.8066 	 3.83446 	 73.9326 	 
H 	 28.6655 	 4.44812 	 74.1929 	 
H 	 27.4084 	 4.24246 	 72.9771 	 
H 	 27.0917 	 3.95475 	 74.7005 	 
S 	 28.4071 	 -3.77311 	 71.9305 	 
C 	 28.9215 	 -5.07114 	 70.9174 	 
C 	 29.9456 	 -4.69284 	 70.0234 	 
C 	 30.5025 	 -3.41516 	 70.3494 	 
C 	 29.7315 	 -2.78762 	 71.3554 	 
H 	 30.3991 	 -5.46056 	 69.3533 	 
C 	 31.8202 	 -2.99744 	 69.7172 	 
H 	 32.2785 	 -3.80719 	 69.2549 	 
H 	 32.5666 	 -2.69337 	 70.4829 	 
C 	 31.676 	 -1.8382 	 68.7087 	 
H 	 30.9644 	 -1.10694 	 69.2 	 
H 	 31.2894 	 -2.1666 	 67.7507 	 
C 	 32.8934 	 -0.959028 	 68.7287 	 
H 	 32.8361 	 -0.129282 	 68.0041 	 
H 	 33.7534 	 -1.53512 	 68.5175 	 
H 	 33.1494 	 -0.424781 	 69.6451 	 
H 	 31.3885 	 1.38058 	 73.7353 	 
H 	 28.5293 	 -6.1053 	 70.9328 	 
