34

S 	 66.6984 	 26.1914 	 72.0628 	 
C 	 67.9424 	 25.1694 	 71.3445 	 
C 	 69.2055 	 25.4869 	 71.7228 	 
C 	 69.2113 	 26.552 	 72.7318 	 
C 	 67.9788 	 26.982 	 73.0913 	 
H 	 70.0922 	 27.0952 	 73.0823 	 
C 	 70.4788 	 24.6733 	 71.4231 	 
H 	 70.1325 	 23.6478 	 71.2046 	 
H 	 70.9415 	 24.4715 	 72.4057 	 
C 	 71.3609 	 25.2941 	 70.3267 	 
H 	 71.7383 	 26.2868 	 70.6287 	 
H 	 72.1917 	 24.5874 	 70.2839 	 
C 	 70.7069 	 25.4911 	 68.9303 	 
H 	 69.8588 	 26.1942 	 68.9664 	 
H 	 71.4198 	 25.8731 	 68.1899 	 
H 	 70.4092 	 24.4765 	 68.5064 	 
S 	 66.6045 	 29.4226 	 73.0347 	 
C 	 66.3715 	 30.356 	 74.4402 	 
C 	 67.2064 	 29.9187 	 75.4312 	 
C 	 67.8771 	 28.6781 	 75.1271 	 
C 	 67.6172 	 28.1957 	 73.8272 	 
H 	 67.198 	 30.526 	 76.3466 	 
C 	 68.7616 	 28.0361 	 76.153 	 
H 	 68.9305 	 27.0918 	 75.6494 	 
H 	 68.2354 	 27.7021 	 77.0723 	 
C 	 70.1425 	 28.6598 	 76.5164 	 
H 	 70.7301 	 27.8562 	 76.9586 	 
H 	 70.0973 	 29.4184 	 77.2884 	 
C 	 70.9466 	 29.1476 	 75.2169 	 
H 	 70.6477 	 30.0938 	 74.7988 	 
H 	 71.0129 	 28.3672 	 74.4289 	 
H 	 71.9092 	 29.4861 	 75.5023 	 
H 	 67.6356 	 24.2965 	 70.742 	 
H 	 65.8465 	 31.1745 	 74.6205 	 
