34

S 	 -22.5664 	 36.6735 	 35.1121 	 
C 	 -23.0353 	 36.0314 	 33.5114 	 
C 	 -22.5469 	 34.7575 	 33.3366 	 
C 	 -21.7366 	 34.3594 	 34.4376 	 
C 	 -21.4889 	 35.2836 	 35.4271 	 
H 	 -21.2356 	 33.3739 	 34.3983 	 
C 	 -22.6729 	 33.954 	 32.0794 	 
H 	 -23.4974 	 33.164 	 32.1983 	 
H 	 -21.82 	 33.3286 	 31.9093 	 
C 	 -22.8141 	 34.728 	 30.7703 	 
H 	 -22.7918 	 34.0801 	 29.902 	 
H 	 -23.7696 	 35.2848 	 30.7572 	 
C 	 -21.6325 	 35.6477 	 30.5054 	 
H 	 -21.5774 	 36.3336 	 31.3931 	 
H 	 -20.614 	 35.1267 	 30.4378 	 
H 	 -21.7508 	 36.205 	 29.6202 	 
S 	 -20.704 	 33.3948 	 37.2826 	 
C 	 -19.3928 	 33.8415 	 38.3955 	 
C 	 -19.316 	 35.2395 	 38.451 	 
C 	 -20.0771 	 35.9189 	 37.4367 	 
C 	 -20.8129 	 35.025 	 36.6728 	 
H 	 -18.6196 	 35.6913 	 39.1105 	 
C 	 -20.0727 	 37.4675 	 37.3038 	 
H 	 -19.6546 	 37.847 	 38.2424 	 
H 	 -21.1639 	 37.8345 	 37.3696 	 
C 	 -19.4211 	 38.0166 	 36.0232 	 
H 	 -19.3631 	 39.0615 	 36.072 	 
H 	 -19.9185 	 37.6317 	 35.1611 	 
C 	 -17.9859 	 37.4826 	 35.7872 	 
H 	 -17.6302 	 37.977 	 34.9663 	 
H 	 -17.9313 	 36.418 	 35.6725 	 
H 	 -17.3456 	 37.793 	 36.604 	 
H 	 -23.4536 	 36.6203 	 32.7017 	 
H 	 -18.9266 	 33.0091 	 38.9431 	 
