34

S 	 -26.0831 	 54.3965 	 108.661 	 
C 	 -27.7472 	 54.5575 	 108.437 	 
C 	 -28.3417 	 55.7129 	 108.856 	 
C 	 -27.3051 	 56.5645 	 109.3 	 
C 	 -26.0155 	 56.0812 	 109.098 	 
H 	 -27.4671 	 57.5253 	 109.774 	 
C 	 -29.8803 	 56.044 	 108.851 	 
H 	 -30.2434 	 55.8965 	 107.836 	 
H 	 -29.9249 	 57.1471 	 109.061 	 
C 	 -30.7576 	 55.2023 	 109.823 	 
H 	 -31.7812 	 55.551 	 109.636 	 
H 	 -30.6854 	 54.0708 	 109.54 	 
C 	 -30.2391 	 55.237 	 111.266 	 
H 	 -29.2627 	 54.843 	 111.358 	 
H 	 -30.236 	 56.1685 	 111.806 	 
H 	 -30.9307 	 54.6189 	 111.881 	 
S 	 -24.6492 	 58.0304 	 107.938 	 
C 	 -23.2068 	 58.6232 	 108.667 	 
C 	 -22.8398 	 57.8273 	 109.744 	 
C 	 -23.7634 	 56.8374 	 110.057 	 
C 	 -24.8636 	 56.8347 	 109.255 	 
H 	 -21.9413 	 58.1068 	 110.307 	 
C 	 -23.6163 	 56.006 	 111.29 	 
H 	 -23.0558 	 55.1349 	 111.057 	 
H 	 -24.5985 	 55.6011 	 111.512 	 
C 	 -22.9148 	 56.588 	 112.534 	 
H 	 -21.8854 	 56.9151 	 112.28 	 
H 	 -22.7459 	 55.7329 	 113.195 	 
C 	 -23.7097 	 57.7899 	 113.164 	 
H 	 -24.6785 	 58.0043 	 112.866 	 
H 	 -23.1591 	 58.7382 	 112.91 	 
H 	 -23.646 	 57.7449 	 114.254 	 
H 	 -28.4035 	 53.7062 	 108.303 	 
H 	 -22.8484 	 59.6039 	 108.467 	 
