34

S 	 10.5351 	 -5.03781 	 89.3449 	 
C 	 10.431 	 -3.47036 	 89.9432 	 
C 	 9.13471 	 -2.9609 	 89.9458 	 
C 	 8.38659 	 -3.71395 	 88.9459 	 
C 	 8.95822 	 -4.92913 	 88.628 	 
H 	 7.42579 	 -3.43639 	 88.6145 	 
C 	 8.75568 	 -1.55009 	 90.4019 	 
H 	 9.45742 	 -1.17013 	 91.1511 	 
H 	 7.82645 	 -1.62045 	 91.0814 	 
C 	 8.70412 	 -0.480998 	 89.2945 	 
H 	 9.63945 	 -0.170954 	 88.8213 	 
H 	 8.20579 	 -0.860482 	 88.3908 	 
C 	 8.00306 	 0.783021 	 89.7752 	 
H 	 7.03262 	 0.509847 	 90.1863 	 
H 	 8.62818 	 1.25357 	 90.5155 	 
H 	 7.88336 	 1.48457 	 88.98 	 
S 	 9.65177 	 -6.77575 	 86.6505 	 
C 	 8.36928 	 -7.88054 	 86.0433 	 
C 	 7.13518 	 -7.61787 	 86.6789 	 
C 	 7.16172 	 -6.56822 	 87.6489 	 
C 	 8.45827 	 -6.01786 	 87.7491 	 
H 	 6.25215 	 -8.18341 	 86.4218 	 
C 	 6.00564 	 -6.30996 	 88.5762 	 
H 	 6.49301 	 -5.91453 	 89.4686 	 
H 	 5.64827 	 -7.3088 	 88.885 	 
C 	 4.93136 	 -5.39233 	 88.1169 	 
H 	 4.57214 	 -5.97406 	 87.1798 	 
H 	 5.33526 	 -4.40628 	 87.8133 	 
C 	 3.80607 	 -5.29783 	 89.1204 	 
H 	 4.25908 	 -5.05194 	 90.0707 	 
H 	 3.20092 	 -6.20941 	 89.1528 	 
H 	 3.0621 	 -4.53504 	 88.875 	 
H 	 11.0904 	 -2.88606 	 90.3982 	 
H 	 8.52821 	 -8.57687 	 85.239 	 
