34

S 	 -30.3194 	 27.2609 	 48.0299 	 
C 	 -29.4422 	 27.2315 	 49.5247 	 
C 	 -29.7488 	 28.3187 	 50.3278 	 
C 	 -30.6858 	 29.1749 	 49.6864 	 
C 	 -31.0839 	 28.7856 	 48.4334 	 
H 	 -31.0705 	 30.1135 	 50.0843 	 
C 	 -29.3117 	 28.5151 	 51.8024 	 
H 	 -28.2917 	 28.2041 	 51.8468 	 
H 	 -29.6966 	 27.6879 	 52.415 	 
C 	 -29.535 	 29.8904 	 52.4628 	 
H 	 -30.5997 	 30.0853 	 52.5033 	 
H 	 -29.1233 	 29.7682 	 53.5193 	 
C 	 -28.7381 	 30.9942 	 51.7453 	 
H 	 -29.168 	 31.3377 	 50.8489 	 
H 	 -28.7125 	 31.8618 	 52.3355 	 
H 	 -27.6937 	 30.7125 	 51.4116 	 
S 	 -31.5313 	 29.4839 	 45.8663 	 
C 	 -32.9721 	 30.4022 	 45.5318 	 
C 	 -33.8757 	 30.4042 	 46.5822 	 
C 	 -33.3211 	 29.8661 	 47.7659 	 
C 	 -32.0765 	 29.3385 	 47.5261 	 
H 	 -34.8024 	 30.9647 	 46.4748 	 
C 	 -34.0357 	 29.9545 	 49.0782 	 
H 	 -35.0547 	 30.4371 	 48.8441 	 
H 	 -33.4445 	 30.623 	 49.668 	 
C 	 -34.2658 	 28.5971 	 49.8048 	 
H 	 -33.2841 	 28.3239 	 50.2185 	 
H 	 -34.6067 	 27.7794 	 49.1603 	 
C 	 -35.3611 	 28.6975 	 50.9202 	 
H 	 -35.1593 	 29.4049 	 51.7231 	 
H 	 -35.5402 	 27.7121 	 51.2807 	 
H 	 -36.2624 	 29.0976 	 50.3933 	 
H 	 -28.8533 	 26.4089 	 49.8426 	 
H 	 -33.2339 	 30.7472 	 44.6004 	 
