34

S 	 -10.8776 	 70.7805 	 49.2135 	 
C 	 -11.0568 	 69.9647 	 47.7352 	 
C 	 -12.2579 	 70.2542 	 47.104 	 
C 	 -12.9732 	 71.3027 	 47.7911 	 
C 	 -12.289 	 71.7916 	 48.8862 	 
H 	 -13.8747 	 71.8021 	 47.4243 	 
C 	 -12.7683 	 69.7189 	 45.8128 	 
H 	 -13.7608 	 69.9846 	 45.5982 	 
H 	 -12.7046 	 68.6507 	 45.8145 	 
C 	 -11.9725 	 70.1039 	 44.5203 	 
H 	 -12.1193 	 71.229 	 44.3858 	 
H 	 -10.9075 	 69.8305 	 44.6199 	 
C 	 -12.5394 	 69.4949 	 43.1775 	 
H 	 -11.8602 	 69.7262 	 42.3837 	 
H 	 -12.6969 	 68.4694 	 43.1213 	 
H 	 -13.5198 	 69.9247 	 42.8966 	 
S 	 -12.7244 	 72.2352 	 51.619 	 
C 	 -13.2287 	 73.8419 	 52.0875 	 
C 	 -13.528 	 74.6047 	 51.0231 	 
C 	 -13.1414 	 74.0536 	 49.7729 	 
C 	 -12.6729 	 72.7784 	 49.9371 	 
H 	 -14.0111 	 75.5328 	 51.3663 	 
C 	 -13.3116 	 74.7235 	 48.3848 	 
H 	 -12.7364 	 74.178 	 47.6014 	 
H 	 -12.9656 	 75.7402 	 48.418 	 
C 	 -14.7091 	 74.8313 	 47.8593 	 
H 	 -15.2616 	 75.5473 	 48.477 	 
H 	 -15.1546 	 73.8043 	 47.9002 	 
C 	 -14.8433 	 75.1752 	 46.4111 	 
H 	 -15.8108 	 75.1757 	 46.0107 	 
H 	 -14.2531 	 74.5171 	 45.6887 	 
H 	 -14.3832 	 76.1036 	 46.135 	 
H 	 -10.4142 	 69.1815 	 47.4333 	 
H 	 -13.4506 	 74.1821 	 53.0805 	 
