34

S 	 6.16095 	 -14.7489 	 88.7951 	 
C 	 5.13379 	 -15.3174 	 90.0711 	 
C 	 5.22392 	 -16.6423 	 90.1962 	 
C 	 6.10448 	 -17.2636 	 89.2858 	 
C 	 6.66974 	 -16.3832 	 88.3803 	 
H 	 6.38216 	 -18.282 	 89.2685 	 
C 	 4.54972 	 -17.4204 	 91.2959 	 
H 	 3.91126 	 -16.7161 	 91.8352 	 
H 	 5.37662 	 -17.7121 	 91.9347 	 
C 	 3.70284 	 -18.5079 	 90.6621 	 
H 	 3.04687 	 -18.1436 	 89.9128 	 
H 	 4.30504 	 -19.1918 	 90.0456 	 
C 	 2.89593 	 -19.2759 	 91.8131 	 
H 	 3.60233 	 -19.9945 	 92.2343 	 
H 	 2.61693 	 -18.5464 	 92.5625 	 
H 	 2.0494 	 -19.8133 	 91.4312 	 
S 	 8.89951 	 -15.7027 	 86.9018 	 
C 	 9.14197 	 -16.6375 	 85.4211 	 
C 	 8.18769 	 -17.5793 	 85.2162 	 
C 	 7.08812 	 -17.5035 	 86.1472 	 
C 	 7.40587 	 -16.6648 	 87.1793 	 
H 	 8.27689 	 -18.1989 	 84.3122 	 
C 	 5.80609 	 -18.3233 	 86.0206 	 
H 	 5.29894 	 -18.515 	 87.0192 	 
H 	 6.32791 	 -19.2851 	 85.747 	 
C 	 4.74198 	 -18.0322 	 84.906 	 
H 	 5.19623 	 -18.0775 	 83.9069 	 
H 	 4.38682 	 -17.0859 	 84.853 	 
C 	 3.51451 	 -18.9803 	 84.9458 	 
H 	 3.7971 	 -20.0224 	 84.8035 	 
H 	 2.80142 	 -18.6881 	 84.1456 	 
H 	 3.00451 	 -19.0847 	 85.8902 	 
H 	 4.63062 	 -14.7311 	 90.8143 	 
H 	 9.91842 	 -16.5284 	 84.6763 	 
