34

S 	 6.27192 	 16.2578 	 85.5116 	 
C 	 4.54776 	 16.0655 	 85.2489 	 
C 	 3.9951 	 15.3859 	 86.3107 	 
C 	 4.93005 	 14.9296 	 87.2209 	 
C 	 6.26064 	 15.2952 	 86.9087 	 
H 	 4.6999 	 14.2979 	 88.0417 	 
C 	 2.45523 	 15.1435 	 86.5556 	 
H 	 2.10433 	 15.945 	 87.1726 	 
H 	 2.22678 	 14.2475 	 87.1782 	 
C 	 1.60901 	 15.1245 	 85.2551 	 
H 	 1.80227 	 16.1789 	 84.8943 	 
H 	 2.06935 	 14.5117 	 84.5573 	 
C 	 0.0856597 	 15.0181 	 85.5449 	 
H 	 -0.0703462 	 14.2175 	 86.3381 	 
H 	 -0.383846 	 15.9515 	 85.8497 	 
H 	 -0.546747 	 14.7351 	 84.6529 	 
S 	 8.15927 	 15.7333 	 88.8436 	 
C 	 9.34155 	 14.4742 	 89.0771 	 
C 	 9.1037 	 13.3277 	 88.3286 	 
C 	 7.89191 	 13.4987 	 87.5736 	 
C 	 7.43764 	 14.8076 	 87.6214 	 
H 	 9.7448 	 12.4622 	 88.2149 	 
C 	 7.33896 	 12.4434 	 86.6691 	 
H 	 8.27441 	 12.0683 	 86.316 	 
H 	 6.79679 	 12.8819 	 85.8586 	 
C 	 6.51163 	 11.4203 	 87.3533 	 
H 	 5.57461 	 11.7986 	 87.7073 	 
H 	 7.01331 	 11.1493 	 88.3231 	 
C 	 6.40774 	 10.235 	 86.5391 	 
H 	 7.37916 	 9.84841 	 86.2375 	 
H 	 5.82108 	 10.3573 	 85.6022 	 
H 	 5.87537 	 9.4929 	 87.2274 	 
H 	 4.02016 	 16.4052 	 84.3491 	 
H 	 10.2578 	 14.4934 	 89.6342 	 
