34

S 	 -9.63903 	 -10.4011 	 87.5471 	 
C 	 -10.3175 	 -9.74802 	 86.0449 	 
C 	 -11.7566 	 -9.70201 	 86.0379 	 
C 	 -12.2119 	 -9.97114 	 87.4047 	 
C 	 -11.2946 	 -10.4671 	 88.2727 	 
H 	 -13.2599 	 -9.86945 	 87.7759 	 
C 	 -12.6386 	 -9.39641 	 84.8798 	 
H 	 -12.9824 	 -10.3239 	 84.3742 	 
H 	 -12.0137 	 -9.03181 	 84.0286 	 
C 	 -13.8904 	 -8.58752 	 85.2098 	 
H 	 -14.6357 	 -9.12536 	 85.7157 	 
H 	 -13.6553 	 -7.68278 	 85.7836 	 
C 	 -14.6093 	 -8.09014 	 83.918 	 
H 	 -15.0852 	 -8.90213 	 83.41 	 
H 	 -15.3392 	 -7.3102 	 84.1529 	 
H 	 -13.8913 	 -7.70276 	 83.2314 	 
S 	 -10.9692 	 -9.64133 	 90.8745 	 
C 	 -11.3839 	 -10.7277 	 92.1975 	 
C 	 -11.8639 	 -11.8996 	 91.7183 	 
C 	 -11.9614 	 -11.9818 	 90.2526 	 
C 	 -11.4199 	 -10.8379 	 89.6887 	 
H 	 -12.2057 	 -12.6833 	 92.4696 	 
C 	 -12.6269 	 -13.1406 	 89.4765 	 
H 	 -13.0799 	 -12.6641 	 88.5969 	 
H 	 -13.4224 	 -13.4178 	 90.0517 	 
C 	 -11.727 	 -14.3406 	 89.1093 	 
H 	 -11.0051 	 -14.1329 	 88.2943 	 
H 	 -12.3362 	 -15.0915 	 88.6873 	 
C 	 -10.9389 	 -14.751 	 90.2874 	 
H 	 -11.6137 	 -14.7732 	 91.1803 	 
H 	 -10.0815 	 -13.9915 	 90.3815 	 
H 	 -10.4648 	 -15.7 	 90.1378 	 
H 	 -9.71483 	 -9.58436 	 85.1452 	 
H 	 -11.2203 	 -10.5326 	 93.2746 	 
