34

S 	 6.36353 	 21.2203 	 39.7582 	 
C 	 6.47489 	 22.6452 	 38.6756 	 
C 	 7.64269 	 23.3448 	 39.0186 	 
C 	 8.53242 	 22.5385 	 39.7961 	 
C 	 7.97576 	 21.329 	 40.219 	 
H 	 9.5455 	 22.7098 	 40.125 	 
C 	 8.04596 	 24.6158 	 38.3874 	 
H 	 7.38652 	 24.858 	 37.5528 	 
H 	 9.04429 	 24.3763 	 38.0521 	 
C 	 7.87672 	 25.7902 	 39.3394 	 
H 	 6.82337 	 25.878 	 39.653 	 
H 	 8.51077 	 25.5782 	 40.2702 	 
C 	 8.40097 	 27.1313 	 38.8768 	 
H 	 8.21125 	 27.2067 	 37.7532 	 
H 	 8.00885 	 28.0051 	 39.3946 	 
H 	 9.45772 	 27.2634 	 39.0771 	 
S 	 7.85841 	 19.9111 	 42.6205 	 
C 	 9.23545 	 18.8527 	 43.0799 	 
C 	 10.1793 	 18.9674 	 42.1441 	 
C 	 9.80439 	 19.6308 	 40.959 	 
C 	 8.6294 	 20.3352 	 41.1398 	 
H 	 11.1219 	 18.4783 	 42.3727 	 
C 	 10.7864 	 19.6331 	 39.8277 	 
H 	 10.2057 	 19.8971 	 38.9254 	 
H 	 11.0991 	 18.6836 	 39.6306 	 
C 	 12.0332 	 20.5728 	 39.9469 	 
H 	 12.7908 	 20.141 	 40.5973 	 
H 	 11.6928 	 21.5585 	 40.3867 	 
C 	 12.7482 	 20.7514 	 38.5556 	 
H 	 13.4691 	 21.5153 	 38.6723 	 
H 	 12.0402 	 20.9439 	 37.7334 	 
H 	 13.2498 	 19.8091 	 38.4404 	 
H 	 5.67698 	 22.9994 	 37.929 	 
H 	 9.34478 	 18.2555 	 44.0133 	 
