34

S 	 7.06844 	 -13.0662 	 63.4863 	 
C 	 7.1694 	 -13.1191 	 65.214 	 
C 	 6.01643 	 -12.6413 	 65.8539 	 
C 	 4.95728 	 -12.3308 	 64.8987 	 
C 	 5.34595 	 -12.622 	 63.5755 	 
H 	 3.92406 	 -12.0473 	 65.132 	 
C 	 5.67516 	 -12.652 	 67.3243 	 
H 	 4.66756 	 -12.2685 	 67.3705 	 
H 	 6.35716 	 -12.0013 	 67.7913 	 
C 	 5.89467 	 -14.0145 	 67.9929 	 
H 	 6.92073 	 -14.2259 	 68.1288 	 
H 	 5.48482 	 -13.9561 	 68.92 	 
C 	 5.28372 	 -15.1864 	 67.159 	 
H 	 5.5235 	 -16.1921 	 67.6145 	 
H 	 4.20341 	 -15.0728 	 67.1487 	 
H 	 5.45296 	 -15.1849 	 66.0499 	 
S 	 5.36015 	 -11.5057 	 61.0307 	 
C 	 3.9658 	 -11.7805 	 59.9912 	 
C 	 3.20306 	 -12.7179 	 60.5346 	 
C 	 3.50012 	 -13.1247 	 61.9212 	 
C 	 4.61952 	 -12.4444 	 62.3727 	 
H 	 2.31683 	 -13.0202 	 59.9323 	 
C 	 2.66364 	 -14.1031 	 62.7364 	 
H 	 1.7018 	 -14.1018 	 62.196 	 
H 	 2.50236 	 -13.7095 	 63.6735 	 
C 	 3.22875 	 -15.5764 	 62.9674 	 
H 	 4.29358 	 -15.6508 	 63.2701 	 
H 	 3.27062 	 -16.1995 	 62.0911 	 
C 	 2.62351 	 -16.3641 	 64.1622 	 
H 	 3.04314 	 -17.3807 	 64.2815 	 
H 	 1.5596 	 -16.4016 	 64.2073 	 
H 	 2.77805 	 -15.7823 	 65.1182 	 
H 	 8.0937 	 -13.3544 	 65.7723 	 
H 	 4.04179 	 -11.4974 	 58.9181 	 
