34

S 	 -12.0648 	 36.1815 	 54.5374 	 
C 	 -10.3089 	 36.0146 	 54.7841 	 
C 	 -9.7887 	 35.175 	 53.8234 	 
C 	 -10.7334 	 34.9021 	 52.7931 	 
C 	 -11.97 	 35.3998 	 52.9511 	 
H 	 -10.4353 	 34.3765 	 51.9592 	 
C 	 -8.37316 	 34.5221 	 53.8431 	 
H 	 -8.50236 	 33.4837 	 53.8503 	 
H 	 -7.80792 	 34.8183 	 54.7948 	 
C 	 -7.36547 	 34.7408 	 52.6768 	 
H 	 -6.49221 	 34.4111 	 53.1327 	 
H 	 -7.58268 	 34.0991 	 51.8347 	 
C 	 -7.39969 	 36.1798 	 52.1896 	 
H 	 -8.29113 	 36.3993 	 51.6023 	 
H 	 -7.33314 	 36.9451 	 53.0279 	 
H 	 -6.61906 	 36.4057 	 51.4446 	 
S 	 -13.6167 	 37.1486 	 51.6825 	 
C 	 -14.6779 	 36.5941 	 50.3856 	 
C 	 -14.7998 	 35.2112 	 50.4578 	 
C 	 -13.8237 	 34.5823 	 51.3003 	 
C 	 -13.0926 	 35.5307 	 52.0082 	 
H 	 -15.5433 	 34.7497 	 49.7854 	 
C 	 -13.6314 	 33.0464 	 51.3462 	 
H 	 -14.5674 	 32.5877 	 51.6394 	 
H 	 -12.7586 	 32.8348 	 51.9466 	 
C 	 -13.1296 	 32.457 	 50.0512 	 
H 	 -12.2296 	 32.8933 	 49.7024 	 
H 	 -13.8694 	 32.5654 	 49.2433 	 
C 	 -12.8969 	 30.9202 	 50.0924 	 
H 	 -12.2518 	 30.7518 	 50.9863 	 
H 	 -12.5027 	 30.4643 	 49.125 	 
H 	 -13.8784 	 30.3674 	 50.3017 	 
H 	 -9.85344 	 36.3062 	 55.702 	 
H 	 -15.3771 	 37.11 	 49.751 	 
