34

S 	 -92.9433 	 55.713 	 128.987 	 
C 	 -91.582 	 56.2946 	 129.976 	 
C 	 -90.515 	 56.7524 	 129.156 	 
C 	 -90.7665 	 56.406 	 127.782 	 
C 	 -92.046 	 55.954 	 127.498 	 
H 	 -90.0585 	 56.7197 	 127.034 	 
C 	 -89.2944 	 57.4727 	 129.629 	 
H 	 -89.7233 	 57.9718 	 130.505 	 
H 	 -88.9143 	 58.1115 	 128.86 	 
C 	 -88.2757 	 56.4755 	 130.086 	 
H 	 -88.7288 	 55.6816 	 130.63 	 
H 	 -88.0634 	 55.9046 	 129.147 	 
C 	 -87.0148 	 57.1029 	 130.598 	 
H 	 -87.1684 	 57.6034 	 131.498 	 
H 	 -86.2562 	 56.2804 	 130.701 	 
H 	 -86.5777 	 57.8262 	 129.896 	 
S 	 -93.7834 	 56.8439 	 125.605 	 
C 	 -93.9407 	 56.063 	 124.058 	 
C 	 -92.9933 	 55.0253 	 124.018 	 
C 	 -92.2797 	 54.7491 	 125.249 	 
C 	 -92.6175 	 55.66 	 126.231 	 
H 	 -93.0054 	 54.4365 	 123.157 	 
C 	 -91.319 	 53.5874 	 125.324 	 
H 	 -91.6295 	 52.8688 	 124.536 	 
H 	 -91.5389 	 53.1496 	 126.355 	 
C 	 -89.8922 	 54.0489 	 125.233 	 
H 	 -89.8318 	 54.6675 	 126.145 	 
H 	 -89.6761 	 54.5277 	 124.305 	 
C 	 -88.9267 	 52.8237 	 125.244 	 
H 	 -88.9703 	 52.1788 	 124.427 	 
H 	 -88.9616 	 52.2006 	 126.144 	 
H 	 -87.9146 	 53.2061 	 125.239 	 
H 	 -91.6105 	 56.4366 	 131.03 	 
H 	 -94.5186 	 56.3564 	 123.206 	 
