34

S 	 25.159 	 32.0986 	 57.0902 	 
C 	 24.5716 	 30.6953 	 57.9123 	 
C 	 24.9515 	 30.7303 	 59.2364 	 
C 	 25.4412 	 32.0343 	 59.6013 	 
C 	 25.6834 	 32.8873 	 58.539 	 
H 	 25.7089 	 32.3573 	 60.5994 	 
C 	 24.8328 	 29.6 	 60.2505 	 
H 	 25.6408 	 29.664 	 60.928 	 
H 	 25.0243 	 28.6281 	 59.8002 	 
C 	 23.4961 	 29.6561 	 60.9985 	 
H 	 23.5019 	 30.7065 	 61.4329 	 
H 	 22.5929 	 29.5685 	 60.3429 	 
C 	 23.4797 	 28.6859 	 62.1551 	 
H 	 23.1804 	 27.6601 	 61.9128 	 
H 	 24.4455 	 28.6082 	 62.5858 	 
H 	 22.9339 	 29.0415 	 63.0104 	 
S 	 27.6382 	 34.3955 	 59.6452 	 
C 	 27.6162 	 36.1532 	 59.4716 	 
C 	 26.6391 	 36.5006 	 58.5725 	 
C 	 25.8852 	 35.4367 	 58.056 	 
C 	 26.2181 	 34.2297 	 58.6273 	 
H 	 26.4877 	 37.5395 	 58.3354 	 
C 	 24.7649 	 35.6128 	 57.0777 	 
H 	 24.6674 	 34.7355 	 56.4306 	 
H 	 25.0243 	 36.3592 	 56.3097 	 
C 	 23.4189 	 36.0315 	 57.5979 	 
H 	 22.8738 	 36.3858 	 56.7551 	 
H 	 23.4999 	 36.721 	 58.4454 	 
C 	 22.6699 	 34.7898 	 58.1214 	 
H 	 22.9488 	 33.9643 	 57.5412 	 
H 	 21.6218 	 35.1074 	 58.0251 	 
H 	 22.8769 	 34.571 	 59.1468 	 
H 	 24.061 	 29.908 	 57.3456 	 
H 	 28.4508 	 36.8566 	 59.665 	 
