34

S 	 -34.9945 	 59.5794 	 113.802 	 
C 	 -33.8649 	 59.2993 	 112.507 	 
C 	 -32.6034 	 59.6477 	 112.782 	 
C 	 -32.5638 	 60.3192 	 114.037 	 
C 	 -33.7807 	 60.4834 	 114.657 	 
H 	 -31.6183 	 60.772 	 114.44 	 
C 	 -31.3914 	 59.4979 	 111.919 	 
H 	 -31.0115 	 60.5498 	 111.822 	 
H 	 -31.7084 	 59.1927 	 110.885 	 
C 	 -30.2903 	 58.4864 	 112.384 	 
H 	 -29.8849 	 58.7546 	 113.295 	 
H 	 -30.5804 	 57.3913 	 112.4 	 
C 	 -29.0449 	 58.5493 	 111.477 	 
H 	 -28.2538 	 57.983 	 112.024 	 
H 	 -29.2576 	 58.0175 	 110.52 	 
H 	 -28.671 	 59.5326 	 111.211 	 
S 	 -35.0271 	 60.5426 	 117.157 	 
C 	 -35.0325 	 62.0544 	 118.003 	 
C 	 -34.2756 	 63.0123 	 117.399 	 
C 	 -33.6693 	 62.5448 	 116.142 	 
C 	 -34.0333 	 61.2742 	 115.869 	 
H 	 -34.2054 	 63.969 	 117.814 	 
C 	 -32.7416 	 63.4893 	 115.327 	 
H 	 -31.8237 	 62.9532 	 115.234 	 
H 	 -32.4256 	 64.2809 	 116.008 	 
C 	 -33.3745 	 63.9243 	 114.037 	 
H 	 -34.3728 	 64.3452 	 114.278 	 
H 	 -33.3502 	 63.105 	 113.364 	 
C 	 -32.5377 	 64.9903 	 113.254 	 
H 	 -33.1396 	 65.2879 	 112.379 	 
H 	 -31.5721 	 64.666 	 112.991 	 
H 	 -32.4014 	 65.9756 	 113.726 	 
H 	 -34.0215 	 58.8652 	 111.523 	 
H 	 -35.5885 	 62.4147 	 118.878 	 
