34

S 	 -33.6512 	 58.0423 	 107.86 	 
C 	 -32.1148 	 57.2227 	 108.115 	 
C 	 -32.0008 	 56.8052 	 109.389 	 
C 	 -33.0827 	 57.1985 	 110.205 	 
C 	 -34.1993 	 57.5867 	 109.467 	 
H 	 -33.2341 	 56.8941 	 111.233 	 
C 	 -30.91 	 55.9277 	 109.948 	 
H 	 -30.7938 	 56.0747 	 110.951 	 
H 	 -29.9542 	 56.0566 	 109.421 	 
C 	 -31.2528 	 54.4423 	 109.848 	 
H 	 -31.9213 	 54.1986 	 110.687 	 
H 	 -31.7751 	 54.3279 	 108.875 	 
C 	 -30.1862 	 53.3538 	 109.939 	 
H 	 -29.5648 	 53.3518 	 110.853 	 
H 	 -30.7413 	 52.3863 	 109.837 	 
H 	 -29.4268 	 53.4184 	 109.152 	 
S 	 -36.354 	 59.1638 	 110.072 	 
C 	 -37.8414 	 58.439 	 110.542 	 
C 	 -37.7048 	 57.0605 	 110.624 	 
C 	 -36.3473 	 56.6415 	 110.329 	 
C 	 -35.5707 	 57.6476 	 109.836 	 
H 	 -38.4462 	 56.4561 	 111.06 	 
C 	 -35.9364 	 55.2393 	 110.193 	 
H 	 -34.9891 	 55.12 	 110.669 	 
H 	 -35.7771 	 55.1184 	 109.119 	 
C 	 -36.9629 	 54.1918 	 110.689 	 
H 	 -37.8115 	 54.1462 	 110.026 	 
H 	 -37.2363 	 54.4634 	 111.724 	 
C 	 -36.4027 	 52.7636 	 110.729 	 
H 	 -37.2422 	 52.1859 	 111.12 	 
H 	 -35.6181 	 52.5485 	 111.436 	 
H 	 -36.0282 	 52.4694 	 109.763 	 
H 	 -31.413 	 57.111 	 107.307 	 
H 	 -38.7097 	 58.9491 	 110.813 	 
