34

S 	 -30.8073 	 70.0985 	 107.217 	 
C 	 -29.2373 	 70.8157 	 107.207 	 
C 	 -28.2652 	 69.9458 	 107.508 	 
C 	 -28.7778 	 68.6354 	 107.897 	 
C 	 -30.1427 	 68.5848 	 107.87 	 
H 	 -28.3477 	 67.6835 	 108.35 	 
C 	 -26.8087 	 70.306 	 107.566 	 
H 	 -26.4989 	 70.3436 	 108.659 	 
H 	 -26.6567 	 71.352 	 107.389 	 
C 	 -25.8761 	 69.493 	 106.79 	 
H 	 -24.9054 	 69.9051 	 106.928 	 
H 	 -25.9659 	 68.451 	 107.171 	 
C 	 -26.3459 	 69.4054 	 105.348 	 
H 	 -25.7352 	 68.6265 	 104.921 	 
H 	 -27.3385 	 69.0863 	 105.006 	 
H 	 -26.0216 	 70.2342 	 104.81 	 
S 	 -32.211 	 67.5413 	 109.432 	 
C 	 -32.7515 	 65.8916 	 109.031 	 
C 	 -32.0824 	 65.3024 	 107.994 	 
C 	 -31.0692 	 66.176 	 107.548 	 
C 	 -31.0414 	 67.4451 	 108.105 	 
H 	 -32.4485 	 64.3606 	 107.57 	 
C 	 -30.2752 	 65.7133 	 106.329 	 
H 	 -29.7731 	 66.5102 	 105.887 	 
H 	 -30.964 	 65.425 	 105.569 	 
C 	 -29.4372 	 64.5361 	 106.527 	 
H 	 -28.8814 	 64.27 	 105.653 	 
H 	 -30.0709 	 63.6244 	 106.794 	 
C 	 -28.4575 	 64.7771 	 107.752 	 
H 	 -29.0025 	 64.917 	 108.624 	 
H 	 -27.716 	 65.5302 	 107.559 	 
H 	 -27.867 	 63.8815 	 107.838 	 
H 	 -28.9892 	 71.7986 	 107.341 	 
H 	 -33.6736 	 65.4932 	 109.502 	 
