34

S 	 8.41591 	 23.4301 	 54.0148 	 
C 	 10.1614 	 23.3619 	 53.8208 	 
C 	 10.7774 	 23.6917 	 55.0362 	 
C 	 9.82916 	 23.9785 	 56.0884 	 
C 	 8.51772 	 23.7884 	 55.6922 	 
H 	 10.14 	 24.4679 	 57.0431 	 
C 	 12.3346 	 23.8995 	 55.2239 	 
H 	 12.8019 	 22.9311 	 55.5409 	 
H 	 12.3694 	 24.6416 	 56.0418 	 
C 	 13.1462 	 24.3437 	 53.9755 	 
H 	 14.1835 	 24.4391 	 54.3281 	 
H 	 13.1311 	 23.5149 	 53.2313 	 
C 	 12.7039 	 25.704 	 53.2124 	 
H 	 12.9779 	 25.7031 	 52.1615 	 
H 	 11.6467 	 25.8543 	 53.1932 	 
H 	 13.1181 	 26.5552 	 53.7748 	 
S 	 6.58861 	 25.6742 	 55.5315 	 
C 	 5.38276 	 25.7339 	 56.8077 	 
C 	 5.80378 	 24.9403 	 57.9136 	 
C 	 7.00699 	 24.1727 	 57.6489 	 
C 	 7.38509 	 24.3872 	 56.3599 	 
H 	 5.3077 	 24.9273 	 58.8597 	 
C 	 7.4657 	 23.1668 	 58.6067 	 
H 	 8.16677 	 22.4244 	 58.2454 	 
H 	 6.60191 	 22.5046 	 58.8884 	 
C 	 8.0728 	 23.8118 	 59.8614 	 
H 	 7.40172 	 24.5333 	 60.2806 	 
H 	 8.87746 	 24.4063 	 59.5369 	 
C 	 8.36676 	 22.841 	 61.048 	 
H 	 7.46085 	 22.4188 	 61.5122 	 
H 	 9.00748 	 23.2179 	 61.8118 	 
H 	 9.02522 	 22.0443 	 60.636 	 
H 	 10.7014 	 23.0471 	 52.9382 	 
H 	 4.51662 	 26.3373 	 56.9224 	 
