34

S 	 17.6349 	 -10.8582 	 83.6241 	 
C 	 16.2379 	 -9.74481 	 83.7061 	 
C 	 15.261 	 -10.2111 	 82.9336 	 
C 	 15.7041 	 -11.1853 	 81.983 	 
C 	 16.9729 	 -11.7213 	 82.2734 	 
H 	 15.103 	 -11.7407 	 81.2757 	 
C 	 13.8702 	 -9.63076 	 82.9043 	 
H 	 13.4348 	 -9.79059 	 83.8761 	 
H 	 13.2791 	 -10.1926 	 82.1753 	 
C 	 13.7732 	 -8.13701 	 82.5877 	 
H 	 14.6247 	 -7.55054 	 82.9243 	 
H 	 13.884 	 -8.15076 	 81.4898 	 
C 	 12.52 	 -7.36461 	 82.9994 	 
H 	 11.5609 	 -7.70494 	 82.6478 	 
H 	 12.4082 	 -7.32017 	 84.1127 	 
H 	 12.6431 	 -6.3632 	 82.6436 	 
S 	 18.3339 	 -14.0667 	 82.4403 	 
C 	 18.6832 	 -14.951 	 80.961 	 
C 	 18.2925 	 -14.2704 	 79.846 	 
C 	 17.5582 	 -13.0658 	 80.1089 	 
C 	 17.5492 	 -12.7958 	 81.5167 	 
H 	 18.5961 	 -14.5618 	 78.8536 	 
C 	 17.1948 	 -12.1021 	 78.9838 	 
H 	 17.9067 	 -12.1226 	 78.0889 	 
H 	 17.395 	 -11.1423 	 79.4829 	 
C 	 15.8346 	 -12.298 	 78.4145 	 
H 	 15.7499 	 -11.6164 	 77.5841 	 
H 	 15.109 	 -12.0394 	 79.2359 	 
C 	 15.6272 	 -13.6983 	 77.8794 	 
H 	 16.3507 	 -13.9433 	 77.0606 	 
H 	 14.5788 	 -13.7159 	 77.4965 	 
H 	 15.632 	 -14.4465 	 78.6234 	 
H 	 16.1578 	 -9.07045 	 84.5824 	 
H 	 19.2312 	 -15.8722 	 80.9341 	 
