34

S 	 -31.3395 	 30.2377 	 43.7979 	 
C 	 -30.4081 	 30.1489 	 45.2867 	 
C 	 -31.1452 	 30.5745 	 46.3841 	 
C 	 -32.4276 	 31.0429 	 45.9551 	 
C 	 -32.7776 	 30.7988 	 44.6737 	 
H 	 -33.1836 	 31.4173 	 46.5709 	 
C 	 -30.6327 	 30.5995 	 47.8319 	 
H 	 -30.6131 	 29.5495 	 48.2357 	 
H 	 -31.4271 	 31.0942 	 48.4687 	 
C 	 -29.3484 	 31.4002 	 48.1414 	 
H 	 -29.5357 	 32.5192 	 48.0415 	 
H 	 -29.1445 	 31.0626 	 49.1112 	 
C 	 -28.0949 	 30.9821 	 47.3438 	 
H 	 -28.0498 	 31.4622 	 46.3201 	 
H 	 -27.2894 	 31.3895 	 47.884 	 
H 	 -27.9747 	 29.9197 	 47.1321 	 
S 	 -34.1906 	 32.0313 	 42.5899 	 
C 	 -35.935 	 31.894 	 42.4603 	 
C 	 -36.4316 	 31.1227 	 43.4882 	 
C 	 -35.343 	 30.6135 	 44.3605 	 
C 	 -34.0562 	 30.9784 	 43.9713 	 
H 	 -37.4716 	 30.9379 	 43.6664 	 
C 	 -35.7707 	 29.7587 	 45.5351 	 
H 	 -36.3977 	 30.33 	 46.2196 	 
H 	 -34.8604 	 29.6582 	 46.1432 	 
C 	 -36.1638 	 28.2974 	 45.0715 	 
H 	 -35.2254 	 27.7373 	 44.9422 	 
H 	 -36.6639 	 28.492 	 44.1259 	 
C 	 -37.2581 	 27.7012 	 45.9088 	 
H 	 -38.2178 	 28.2132 	 45.799 	 
H 	 -36.9832 	 27.753 	 46.9526 	 
H 	 -37.4057 	 26.5937 	 45.597 	 
H 	 -29.4525 	 29.6976 	 45.3976 	 
H 	 -36.5125 	 32.156 	 41.5847 	 
