34

S 	 -28.7693 	 68.1971 	 104.08 	 
C 	 -28.4031 	 66.8514 	 103.002 	 
C 	 -27.1336 	 66.2846 	 103.279 	 
C 	 -26.5801 	 66.9936 	 104.431 	 
C 	 -27.232 	 68.1567 	 104.801 	 
H 	 -25.7176 	 66.7214 	 104.99 	 
C 	 -26.5067 	 65.0004 	 102.648 	 
H 	 -25.5415 	 64.6319 	 103.064 	 
H 	 -26.2025 	 65.189 	 101.663 	 
C 	 -27.4298 	 63.7306 	 102.596 	 
H 	 -27.688 	 63.4801 	 103.619 	 
H 	 -28.2654 	 64.025 	 101.991 	 
C 	 -26.6898 	 62.51 	 101.951 	 
H 	 -27.1151 	 61.5609 	 102.301 	 
H 	 -26.8635 	 62.6259 	 100.919 	 
H 	 -25.5924 	 62.4595 	 102.08 	 
S 	 -25.0977 	 69.651 	 105.88 	 
C 	 -25.2907 	 70.4988 	 107.389 	 
C 	 -26.5912 	 70.3455 	 107.864 	 
C 	 -27.46 	 69.6452 	 107.017 	 
C 	 -26.8156 	 69.1003 	 105.864 	 
H 	 -26.8227 	 70.6753 	 108.883 	 
C 	 -28.9782 	 69.3066 	 107.409 	 
H 	 -29.5907 	 69.4622 	 106.516 	 
H 	 -29.4368 	 70.0502 	 108.041 	 
C 	 -29.2599 	 67.9758 	 108.113 	 
H 	 -29.062 	 67.1468 	 107.42 	 
H 	 -30.3094 	 68.0398 	 108.43 	 
C 	 -28.332 	 67.6993 	 109.274 	 
H 	 -28.7018 	 66.9548 	 109.953 	 
H 	 -28.1547 	 68.5896 	 109.834 	 
H 	 -27.3636 	 67.2947 	 109.054 	 
H 	 -29.0875 	 66.4471 	 102.26 	 
H 	 -24.7163 	 70.9939 	 108.105 	 
