34

S 	 -37.7164 	 0.226906 	 100.31 	 
C 	 -36.0649 	 -0.301359 	 100.414 	 
C 	 -35.3478 	 0.236106 	 99.3303 	 
C 	 -36.1187 	 1.14677 	 98.4911 	 
C 	 -37.4286 	 1.25582 	 98.8991 	 
H 	 -35.7805 	 1.6015 	 97.5614 	 
C 	 -33.8823 	 0.0192161 	 99.2201 	 
H 	 -33.6436 	 -0.932251 	 99.5713 	 
H 	 -33.2609 	 0.685933 	 99.7833 	 
C 	 -33.2666 	 0.0422524 	 97.7834 	 
H 	 -33.3305 	 1.0455 	 97.3278 	 
H 	 -32.2168 	 -0.27631 	 97.9231 	 
C 	 -34.0617 	 -0.973996 	 96.9109 	 
H 	 -33.5866 	 -1.09607 	 95.8518 	 
H 	 -34.1688 	 -1.94899 	 97.2648 	 
H 	 -34.9711 	 -0.456938 	 96.6617 	 
S 	 -38.8903 	 3.5416 	 98.4726 	 
C 	 -40.1187 	 3.63842 	 97.1588 	 
C 	 -40.0391 	 2.48417 	 96.4006 	 
C 	 -39.1193 	 1.48957 	 96.8782 	 
C 	 -38.4824 	 1.9016 	 98.0945 	 
H 	 -40.6724 	 2.26054 	 95.5175 	 
C 	 -39.0151 	 0.0990062 	 96.2824 	 
H 	 -38.1601 	 0.0649632 	 95.5673 	 
H 	 -39.9181 	 -0.0641493 	 95.7049 	 
C 	 -38.8715 	 -1.12675 	 97.2565 	 
H 	 -39.293 	 -0.926522 	 98.2939 	 
H 	 -37.796 	 -1.32408 	 97.3866 	 
C 	 -39.4437 	 -2.35904 	 96.671 	 
H 	 -40.4461 	 -2.23686 	 96.3017 	 
H 	 -39.5458 	 -3.16083 	 97.355 	 
H 	 -38.829 	 -2.76101 	 95.7838 	 
H 	 -35.5567 	 -0.812336 	 101.228 	 
H 	 -40.7059 	 4.46839 	 96.9881 	 
