34

S 	 -36.5204 	 58.6564 	 108.951 	 
C 	 -37.6642 	 57.3308 	 108.93 	 
C 	 -37.6719 	 56.6968 	 107.725 	 
C 	 -36.7621 	 57.3439 	 106.79 	 
C 	 -36.196 	 58.5299 	 107.225 	 
H 	 -36.5697 	 57.0612 	 105.788 	 
C 	 -38.4083 	 55.4078 	 107.402 	 
H 	 -37.7657 	 54.9103 	 106.691 	 
H 	 -39.2954 	 55.7768 	 106.907 	 
C 	 -38.6677 	 54.4536 	 108.518 	 
H 	 -38.9123 	 54.9611 	 109.426 	 
H 	 -39.5749 	 53.8045 	 108.366 	 
C 	 -37.4357 	 53.6334 	 108.816 	 
H 	 -36.5357 	 54.245 	 109.043 	 
H 	 -37.4938 	 52.816 	 109.641 	 
H 	 -37.3515 	 53.0587 	 107.877 	 
S 	 -33.8522 	 59.7947 	 107.458 	 
C 	 -33.0482 	 60.617 	 106.067 	 
C 	 -33.9049 	 60.4915 	 104.984 	 
C 	 -35.1949 	 59.8797 	 105.263 	 
C 	 -35.2831 	 59.3934 	 106.526 	 
H 	 -33.6398 	 60.9267 	 104.024 	 
C 	 -36.251 	 59.794 	 104.151 	 
H 	 -36.3266 	 60.79 	 103.74 	 
H 	 -37.2351 	 59.6753 	 104.6 	 
C 	 -35.9116 	 58.7557 	 103.185 	 
H 	 -35.877 	 57.8207 	 103.687 	 
H 	 -34.9793 	 58.9103 	 102.544 	 
C 	 -36.8964 	 58.8002 	 101.965 	 
H 	 -36.8989 	 59.7502 	 101.446 	 
H 	 -37.9022 	 58.5422 	 102.32 	 
H 	 -36.642 	 57.9869 	 101.292 	 
H 	 -38.1197 	 56.9513 	 109.834 	 
H 	 -32.0727 	 61.1368 	 106.05 	 
