34

S 	 -19.5016 	 -0.283691 	 78.3179 	 
C 	 -18.3517 	 -1.32243 	 77.6075 	 
C 	 -18.7155 	 -1.71934 	 76.3486 	 
C 	 -20.0449 	 -1.31205 	 76.0187 	 
C 	 -20.6582 	 -0.612184 	 77.0599 	 
H 	 -20.5012 	 -1.35524 	 75.0565 	 
C 	 -17.8777 	 -2.52171 	 75.4514 	 
H 	 -16.8885 	 -2.49915 	 75.7685 	 
H 	 -17.7996 	 -1.98569 	 74.5075 	 
C 	 -18.3343 	 -3.986 	 75.1932 	 
H 	 -19.2349 	 -3.989 	 74.6587 	 
H 	 -17.5137 	 -4.42042 	 74.5613 	 
C 	 -18.6386 	 -4.876 	 76.4095 	 
H 	 -18.1351 	 -4.38817 	 77.2228 	 
H 	 -19.6825 	 -4.86423 	 76.758 	 
H 	 -18.2498 	 -5.88019 	 76.2535 	 
S 	 -21.9899 	 1.67303 	 77.7676 	 
C 	 -23.682 	 1.85905 	 77.3347 	 
C 	 -24.2238 	 0.686787 	 76.8617 	 
C 	 -23.2327 	 -0.32887 	 76.7222 	 
C 	 -21.973 	 0.0768266 	 77.0614 	 
H 	 -25.2585 	 0.73049 	 76.6254 	 
C 	 -23.5737 	 -1.80617 	 76.4922 	 
H 	 -22.8871 	 -2.17142 	 75.8411 	 
H 	 -24.541 	 -1.72655 	 75.9821 	 
C 	 -23.6753 	 -2.65764 	 77.7001 	 
H 	 -24.3302 	 -2.19814 	 78.4284 	 
H 	 -22.6819 	 -2.78111 	 78.0765 	 
C 	 -24.0949 	 -4.15949 	 77.4145 	 
H 	 -24.206 	 -4.79724 	 78.3519 	 
H 	 -23.3788 	 -4.67396 	 76.7413 	 
H 	 -25.0072 	 -4.19216 	 76.7709 	 
H 	 -17.4872 	 -1.68533 	 78.1592 	 
H 	 -24.2569 	 2.75205 	 77.5207 	 
