34

S 	 -10.3256 	 31.257 	 55.1274 	 
C 	 -9.55525 	 29.7955 	 55.5829 	 
C 	 -8.22935 	 29.6812 	 55.1229 	 
C 	 -7.79715 	 30.8273 	 54.4343 	 
C 	 -8.84755 	 31.789 	 54.3687 	 
H 	 -6.80276 	 31.056 	 53.9876 	 
C 	 -7.35879 	 28.4469 	 55.4701 	 
H 	 -6.61024 	 28.3283 	 54.6182 	 
H 	 -7.99336 	 27.531 	 55.4795 	 
C 	 -6.59425 	 28.4376 	 56.7692 	 
H 	 -5.89162 	 27.6022 	 56.7417 	 
H 	 -6.00231 	 29.3196 	 56.8364 	 
C 	 -7.39059 	 28.1374 	 58.0599 	 
H 	 -7.82323 	 28.9979 	 58.47 	 
H 	 -7.98603 	 27.2719 	 57.9569 	 
H 	 -6.71788 	 27.7343 	 58.8738 	 
S 	 -8.87383 	 34.5529 	 54.7201 	 
C 	 -8.83363 	 35.549 	 53.2855 	 
C 	 -8.31719 	 34.8717 	 52.2047 	 
C 	 -8.27119 	 33.4772 	 52.4755 	 
C 	 -8.63766 	 33.0966 	 53.7488 	 
H 	 -8.26835 	 35.3943 	 51.2734 	 
C 	 -7.78447 	 32.531 	 51.3758 	 
H 	 -7.7266 	 31.5647 	 51.9039 	 
H 	 -6.76542 	 32.7037 	 51.1397 	 
C 	 -8.69153 	 32.5869 	 50.0918 	 
H 	 -8.92149 	 33.5338 	 49.6008 	 
H 	 -9.66425 	 32.231 	 50.4445 	 
C 	 -8.12745 	 31.5458 	 49.0536 	 
H 	 -8.24893 	 30.5136 	 49.3592 	 
H 	 -7.02905 	 31.577 	 48.8993 	 
H 	 -8.68973 	 31.5553 	 48.0919 	 
H 	 -10.0433 	 28.9543 	 56.2019 	 
H 	 -9.00923 	 36.5936 	 53.2996 	 
