34

S 	 -46.4359 	 41.6283 	 82.5253 	 
C 	 -47.524 	 42.0598 	 83.8767 	 
C 	 -47.7368 	 40.973 	 84.7102 	 
C 	 -46.9735 	 39.8162 	 84.2237 	 
C 	 -46.1469 	 40.03 	 83.1367 	 
H 	 -46.9736 	 38.8075 	 84.7228 	 
C 	 -48.8633 	 40.8651 	 85.7097 	 
H 	 -49.1115 	 41.883 	 86.1562 	 
H 	 -48.5444 	 40.4143 	 86.6964 	 
C 	 -50.1584 	 40.139 	 85.2642 	 
H 	 -50.8795 	 40.5943 	 85.8942 	 
H 	 -50.5152 	 40.274 	 84.2482 	 
C 	 -50.1169 	 38.6457 	 85.5197 	 
H 	 -51.0726 	 38.3069 	 85.1251 	 
H 	 -49.3263 	 38.1746 	 85.0581 	 
H 	 -50.0058 	 38.36 	 86.6099 	 
S 	 -43.6948 	 40.0149 	 81.8223 	 
C 	 -42.8956 	 38.4873 	 81.4203 	 
C 	 -43.7701 	 37.4415 	 81.6944 	 
C 	 -45.006 	 37.8269 	 82.2491 	 
C 	 -45.137 	 39.2366 	 82.4926 	 
H 	 -43.6205 	 36.3689 	 81.5711 	 
C 	 -46.0867 	 36.7717 	 82.2276 	 
H 	 -46.1321 	 36.1297 	 83.1746 	 
H 	 -45.6821 	 35.901 	 81.6697 	 
C 	 -47.3562 	 37.1363 	 81.5385 	 
H 	 -47.7648 	 37.842 	 82.2644 	 
H 	 -47.9607 	 36.2129 	 81.5054 	 
C 	 -47.3726 	 37.6635 	 80.0799 	 
H 	 -46.8371 	 38.6104 	 79.8415 	 
H 	 -48.4718 	 37.81 	 79.898 	 
H 	 -46.9809 	 36.8783 	 79.4903 	 
H 	 -48.0639 	 42.9697 	 83.9425 	 
H 	 -41.9743 	 38.2636 	 80.9308 	 
