34

S 	 -42.8881 	 25.9186 	 79.5772 	 
C 	 -42.0694 	 27.4378 	 79.7384 	 
C 	 -40.713 	 27.2975 	 79.8212 	 
C 	 -40.262 	 25.9102 	 79.6039 	 
C 	 -41.3219 	 25.0894 	 79.296 	 
H 	 -39.2465 	 25.4879 	 79.5867 	 
C 	 -39.6196 	 28.3466 	 80.0572 	 
H 	 -40.0556 	 29.3198 	 79.9635 	 
H 	 -38.8824 	 28.2138 	 79.1885 	 
C 	 -39.0322 	 28.0879 	 81.4853 	 
H 	 -39.7781 	 27.7039 	 82.1583 	 
H 	 -38.3323 	 27.241 	 81.4061 	 
C 	 -38.3601 	 29.3524 	 82.194 	 
H 	 -39.16 	 30.0109 	 82.3988 	 
H 	 -37.9471 	 29.1002 	 83.1922 	 
H 	 -37.6692 	 29.8412 	 81.5268 	 
S 	 -42.1132 	 22.6964 	 80.4558 	 
C 	 -41.6906 	 21.1667 	 79.7118 	 
C 	 -40.767 	 21.3446 	 78.722 	 
C 	 -40.4665 	 22.7358 	 78.5003 	 
C 	 -41.2481 	 23.6169 	 79.2033 	 
H 	 -40.3761 	 20.5111 	 78.1386 	 
C 	 -39.5075 	 23.1573 	 77.4462 	 
H 	 -38.5616 	 22.6735 	 77.6064 	 
H 	 -39.3321 	 24.2391 	 77.5749 	 
C 	 -39.9848 	 22.9656 	 75.9743 	 
H 	 -41.0141 	 23.3782 	 75.7609 	 
H 	 -40.0739 	 21.9233 	 75.7693 	 
C 	 -38.8584 	 23.4465 	 75.0615 	 
H 	 -38.7151 	 24.516 	 75.1295 	 
H 	 -39.0572 	 23.1177 	 74.0235 	 
H 	 -37.9253 	 22.9296 	 75.1993 	 
H 	 -42.5289 	 28.4338 	 79.7403 	 
H 	 -42.1298 	 20.2596 	 80.0861 	 
