34

S 	 -4.50935 	 21.8826 	 53.1226 	 
C 	 -3.79094 	 20.9775 	 51.9102 	 
C 	 -4.60789 	 20.9133 	 50.8027 	 
C 	 -5.8096 	 21.6405 	 50.9362 	 
C 	 -5.92619 	 22.2151 	 52.1988 	 
H 	 -6.59529 	 21.6813 	 50.2719 	 
C 	 -4.20773 	 20.1005 	 49.583 	 
H 	 -5.00209 	 20.1451 	 48.8644 	 
H 	 -4.04564 	 18.9751 	 49.7685 	 
C 	 -2.90628 	 20.675 	 49.0693 	 
H 	 -2.94989 	 21.6844 	 48.7604 	 
H 	 -2.20071 	 20.6443 	 49.837 	 
C 	 -2.30318 	 19.9133 	 47.8614 	 
H 	 -1.41308 	 20.424 	 47.6196 	 
H 	 -2.15867 	 18.8806 	 47.8804 	 
H 	 -2.96577 	 20.0761 	 47.0261 	 
S 	 -8.69727 	 22.561 	 52.4367 	 
C 	 -9.30276 	 23.8245 	 53.4416 	 
C 	 -8.29273 	 24.7268 	 53.8008 	 
C 	 -6.97028 	 24.1891 	 53.5405 	 
C 	 -7.00391 	 23.0332 	 52.7723 	 
H 	 -8.62559 	 25.7203 	 54.1434 	 
C 	 -5.69892 	 25.0027 	 53.8917 	 
H 	 -5.02004 	 24.8081 	 53.137 	 
H 	 -5.19281 	 24.661 	 54.8313 	 
C 	 -5.78589 	 26.5682 	 54.1125 	 
H 	 -6.31354 	 27.1757 	 53.3699 	 
H 	 -4.73724 	 26.8915 	 54.0573 	 
C 	 -6.4417 	 26.9627 	 55.518 	 
H 	 -5.7892 	 26.6664 	 56.381 	 
H 	 -7.39996 	 26.5025 	 55.7177 	 
H 	 -6.57906 	 28.0446 	 55.5368 	 
H 	 -2.87434 	 20.3992 	 51.9762 	 
H 	 -10.4047 	 24.138 	 53.5517 	 
