34

S 	 48.808 	 8.08825 	 84.3976 	 
C 	 47.1013 	 8.29951 	 84.6258 	 
C 	 46.3587 	 8.07351 	 83.5035 	 
C 	 47.1929 	 7.6375 	 82.4123 	 
C 	 48.5391 	 7.65042 	 82.7727 	 
H 	 46.9379 	 7.43483 	 81.4153 	 
C 	 44.8632 	 8.31423 	 83.3988 	 
H 	 44.6121 	 9.27722 	 82.9793 	 
H 	 44.4167 	 8.46187 	 84.4462 	 
C 	 43.9772 	 7.25551 	 82.7791 	 
H 	 42.9977 	 7.70305 	 82.6683 	 
H 	 44.2388 	 7.10139 	 81.722 	 
C 	 44.0017 	 5.83617 	 83.3311 	 
H 	 43.4838 	 5.10342 	 82.6639 	 
H 	 45.0043 	 5.5422 	 83.5861 	 
H 	 43.3904 	 5.82272 	 84.1979 	 
S 	 50.3491 	 8.48677 	 80.8728 	 
C 	 51.1354 	 7.24916 	 79.9145 	 
C 	 50.8887 	 6.0123 	 80.3635 	 
C 	 50.0347 	 5.99212 	 81.5637 	 
C 	 49.6374 	 7.27428 	 81.9297 	 
H 	 51.2922 	 5.17559 	 79.8014 	 
C 	 49.3936 	 4.67391 	 82.028 	 
H 	 48.3854 	 4.62541 	 81.5586 	 
H 	 49.1421 	 4.77819 	 83.0545 	 
C 	 50.0968 	 3.34452 	 81.7051 	 
H 	 51.1081 	 3.38955 	 82.1382 	 
H 	 50.2975 	 3.23864 	 80.6749 	 
C 	 49.3324 	 2.09372 	 82.224 	 
H 	 48.2371 	 2.14687 	 82.0505 	 
H 	 49.5525 	 2.00358 	 83.255 	 
H 	 49.7702 	 1.15735 	 81.847 	 
H 	 46.6677 	 8.5913 	 85.5561 	 
H 	 51.8069 	 7.38474 	 79.1227 	 
