34

S 	 -16.3115 	 54.3016 	 63.0332 	 
C 	 -15.772 	 52.8094 	 62.2502 	 
C 	 -14.326 	 52.7601 	 62.2108 	 
C 	 -13.768 	 53.9665 	 62.6862 	 
C 	 -14.6576 	 54.9435 	 63.1591 	 
H 	 -12.708 	 54.2964 	 62.7127 	 
C 	 -13.5171 	 51.5143 	 61.8968 	 
H 	 -13.9045 	 51.1449 	 61.0015 	 
H 	 -13.7767 	 50.705 	 62.7055 	 
C 	 -12.0401 	 51.7623 	 61.8392 	 
H 	 -11.8978 	 52.5446 	 61.1383 	 
H 	 -11.6828 	 52.2714 	 62.7723 	 
C 	 -11.239 	 50.4333 	 61.6621 	 
H 	 -10.1639 	 50.5344 	 62.0134 	 
H 	 -11.6847 	 49.5372 	 62.0763 	 
H 	 -11.1878 	 50.2531 	 60.6166 	 
S 	 -15.0556 	 57.7034 	 63.0048 	 
C 	 -14.3058 	 58.7041 	 64.1743 	 
C 	 -13.3989 	 58.0301 	 64.9318 	 
C 	 -13.3037 	 56.6368 	 64.6558 	 
C 	 -14.276 	 56.2447 	 63.689 	 
H 	 -12.7835 	 58.485 	 65.6831 	 
C 	 -12.2814 	 55.6247 	 65.2256 	 
H 	 -12.713 	 54.5976 	 65.1792 	 
H 	 -12.3225 	 55.9065 	 66.2299 	 
C 	 -10.8781 	 55.6533 	 64.6319 	 
H 	 -10.3462 	 56.6051 	 64.7754 	 
H 	 -10.9833 	 55.3283 	 63.6039 	 
C 	 -10.0782 	 54.6204 	 65.4641 	 
H 	 -8.97429 	 54.8313 	 65.3569 	 
H 	 -10.3719 	 53.5903 	 65.2162 	 
H 	 -10.2348 	 54.7647 	 66.5263 	 
H 	 -16.426 	 51.9272 	 62.0966 	 
H 	 -14.586 	 59.7642 	 64.3181 	 
