34

S 	 -1.83528 	 33.3684 	 52.6176 	 
C 	 -0.207812 	 32.9917 	 53.2146 	 
C 	 -0.0449997 	 31.6086 	 53.258 	 
C 	 -1.23212 	 30.9095 	 52.7819 	 
C 	 -2.24656 	 31.7001 	 52.2505 	 
H 	 -1.30065 	 29.8621 	 52.6749 	 
C 	 1.19045 	 30.8656 	 53.7845 	 
H 	 2.0775 	 31.4811 	 53.7358 	 
H 	 1.28071 	 30.0298 	 53.1153 	 
C 	 1.09665 	 30.3678 	 55.2374 	 
H 	 1.40507 	 31.2145 	 55.8656 	 
H 	 0.0548939 	 30.1285 	 55.5016 	 
C 	 1.97957 	 29.1625 	 55.6531 	 
H 	 3.02951 	 29.3778 	 55.7965 	 
H 	 1.67678 	 28.7115 	 56.6027 	 
H 	 1.93309 	 28.4058 	 54.9141 	 
S 	 -4.95115 	 32.0162 	 52.2112 	 
C 	 -5.98048 	 31.0843 	 51.1066 	 
C 	 -5.18266 	 30.262 	 50.3887 	 
C 	 -3.74261 	 30.4514 	 50.5606 	 
C 	 -3.50073 	 31.3765 	 51.5784 	 
H 	 -5.67088 	 29.5322 	 49.6971 	 
C 	 -2.73746 	 29.7625 	 49.6441 	 
H 	 -3.15216 	 28.7781 	 49.5176 	 
H 	 -1.82235 	 29.6517 	 50.1685 	 
C 	 -2.56326 	 30.554 	 48.3172 	 
H 	 -3.5529 	 30.6716 	 47.8223 	 
H 	 -1.95799 	 30.0634 	 47.6111 	 
C 	 -1.86977 	 31.9618 	 48.5481 	 
H 	 -1.35059 	 32.2166 	 47.5944 	 
H 	 -1.10412 	 32.0169 	 49.3564 	 
H 	 -2.66647 	 32.694 	 48.7646 	 
H 	 0.556169 	 33.611 	 53.6296 	 
H 	 -7.07679 	 31.0338 	 51.165 	 
