34

S 	 -47.3471 	 24.6907 	 81.1832 	 
C 	 -47.8872 	 25.3621 	 82.7204 	 
C 	 -48.2216 	 24.3415 	 83.6286 	 
C 	 -48.3336 	 23.0706 	 83.0049 	 
C 	 -47.9154 	 23.0886 	 81.6876 	 
H 	 -48.6041 	 22.1116 	 83.4233 	 
C 	 -48.1917 	 24.5217 	 85.1161 	 
H 	 -47.1765 	 24.7521 	 85.2841 	 
H 	 -48.317 	 23.5267 	 85.5936 	 
C 	 -48.9476 	 25.756 	 85.6164 	 
H 	 -48.5517 	 26.6648 	 85.1378 	 
H 	 -50.0051 	 25.632 	 85.4916 	 
C 	 -48.7802 	 25.8193 	 87.1082 	 
H 	 -47.7583 	 25.8176 	 87.4559 	 
H 	 -49.3275 	 26.7245 	 87.5321 	 
H 	 -49.2323 	 24.9746 	 87.5535 	 
S 	 -48.5213 	 21.8904 	 79.3243 	 
C 	 -47.9388 	 20.2895 	 78.9523 	 
C 	 -47.1699 	 19.8197 	 79.9715 	 
C 	 -47.0616 	 20.7174 	 81.0723 	 
C 	 -47.7393 	 21.8799 	 80.8766 	 
H 	 -46.8352 	 18.762 	 79.8949 	 
C 	 -46.3083 	 20.3181 	 82.3445 	 
H 	 -46.3843 	 19.2061 	 82.4367 	 
H 	 -46.9013 	 20.6463 	 83.2127 	 
C 	 -44.8647 	 20.7707 	 82.4287 	 
H 	 -44.8961 	 21.8901 	 82.3687 	 
H 	 -44.3637 	 20.4172 	 81.5861 	 
C 	 -44.1666 	 20.3595 	 83.7349 	 
H 	 -43.1857 	 20.8574 	 83.6537 	 
H 	 -44.0327 	 19.3388 	 84.0048 	 
H 	 -44.5983 	 20.8315 	 84.6502 	 
H 	 -47.5947 	 26.3598 	 83.108 	 
H 	 -48.1437 	 19.7705 	 78.0373 	 
