34

S 	 10.3871 	 21.5034 	 53.1515 	 
C 	 11.2746 	 22.1312 	 54.5128 	 
C 	 12.5396 	 22.595 	 54.1927 	 
C 	 12.6346 	 22.8149 	 52.8064 	 
C 	 11.5311 	 22.3532 	 52.0907 	 
H 	 13.4803 	 23.2209 	 52.2835 	 
C 	 13.6485 	 22.8608 	 55.1814 	 
H 	 13.9715 	 23.9361 	 55.2161 	 
H 	 14.4737 	 22.2174 	 54.9195 	 
C 	 13.3255 	 22.5592 	 56.6414 	 
H 	 12.49 	 23.0969 	 56.9653 	 
H 	 13.1285 	 21.4616 	 56.733 	 
C 	 14.4652 	 22.7043 	 57.7157 	 
H 	 14.0388 	 22.5558 	 58.6833 	 
H 	 15.2164 	 21.925 	 57.6355 	 
H 	 14.8808 	 23.652 	 57.6758 	 
S 	 11.7502 	 20.8985 	 49.7565 	 
C 	 11.032 	 21.4279 	 48.3068 	 
C 	 10.435 	 22.6386 	 48.5642 	 
C 	 10.6446 	 23.2531 	 49.8552 	 
C 	 11.3202 	 22.3532 	 50.6525 	 
H 	 9.7408 	 23.115 	 47.8765 	 
C 	 10.0458 	 24.5538 	 50.3982 	 
H 	 10.0899 	 25.249 	 49.6002 	 
H 	 10.9007 	 25.0425 	 50.9845 	 
C 	 8.69331 	 24.4949 	 51.1264 	 
H 	 8.65416 	 25.2392 	 51.9078 	 
H 	 8.53852 	 23.5291 	 51.6121 	 
C 	 7.51044 	 24.4983 	 50.1568 	 
H 	 6.55545 	 24.4043 	 50.7062 	 
H 	 7.60909 	 23.6859 	 49.474 	 
H 	 7.46602 	 25.496 	 49.5676 	 
H 	 11.0724 	 21.9679 	 55.5864 	 
H 	 10.9463 	 20.9175 	 47.3623 	 
