34

S 	 -18.3431 	 42.5324 	 55.8174 	 
C 	 -17.7216 	 43.7634 	 54.6757 	 
C 	 -18.2522 	 44.9755 	 54.9507 	 
C 	 -19.3687 	 44.8733 	 55.8026 	 
C 	 -19.6307 	 43.6358 	 56.3063 	 
H 	 -19.8663 	 45.7167 	 56.1366 	 
C 	 -17.6874 	 46.2993 	 54.4163 	 
H 	 -18.4788 	 46.831 	 53.9279 	 
H 	 -17.0156 	 46.0558 	 53.5498 	 
C 	 -17.0463 	 47.1991 	 55.4301 	 
H 	 -16.7871 	 48.1597 	 55.0156 	 
H 	 -17.7669 	 47.383 	 56.2468 	 
C 	 -15.8209 	 46.5233 	 56.1428 	 
H 	 -16.1078 	 45.5865 	 56.5814 	 
H 	 -15.0077 	 46.1692 	 55.4514 	 
H 	 -15.2869 	 47.1144 	 56.9116 	 
S 	 -20.4184 	 42.7725 	 58.8112 	 
C 	 -22.1004 	 42.9146 	 59.2283 	 
C 	 -22.8767 	 43.4982 	 58.2417 	 
C 	 -22.0368 	 43.8316 	 57.1252 	 
C 	 -20.7526 	 43.3821 	 57.2375 	 
H 	 -23.9057 	 43.8468 	 58.4731 	 
C 	 -22.6453 	 44.4768 	 55.8714 	 
H 	 -22.1843 	 45.422 	 55.8789 	 
H 	 -23.7353 	 44.5824 	 56.055 	 
C 	 -22.4925 	 43.6274 	 54.6081 	 
H 	 -23.1396 	 42.8267 	 54.8243 	 
H 	 -21.4323 	 43.4028 	 54.5324 	 
C 	 -22.9368 	 44.3473 	 53.3278 	 
H 	 -22.6837 	 43.8572 	 52.3969 	 
H 	 -22.5219 	 45.3804 	 53.1913 	 
H 	 -24.0027 	 44.3939 	 53.3532 	 
H 	 -16.8753 	 43.6647 	 54.0267 	 
H 	 -22.556 	 42.7262 	 60.2055 	 
