34

S 	 -86.7713 	 47.7044 	 128.958 	 
C 	 -87.0532 	 45.9976 	 129.468 	 
C 	 -86.3688 	 45.0655 	 128.678 	 
C 	 -85.5356 	 45.7491 	 127.682 	 
C 	 -85.6612 	 47.1533 	 127.72 	 
H 	 -84.993 	 45.2672 	 126.865 	 
C 	 -86.6004 	 43.5526 	 128.629 	 
H 	 -86.6726 	 43.1415 	 127.636 	 
H 	 -87.5164 	 43.2925 	 129.127 	 
C 	 -85.5197 	 42.7426 	 129.385 	 
H 	 -85.4451 	 43.0554 	 130.427 	 
H 	 -85.9414 	 41.737 	 129.375 	 
C 	 -84.167 	 42.6177 	 128.692 	 
H 	 -83.7479 	 41.6868 	 129.057 	 
H 	 -84.1457 	 42.5754 	 127.62 	 
H 	 -83.4828 	 43.4489 	 128.987 	 
S 	 -84.5416 	 49.6755 	 127.816 	 
C 	 -83.6352 	 50.3132 	 126.433 	 
C 	 -83.5906 	 49.3453 	 125.467 	 
C 	 -84.2774 	 48.1611 	 125.708 	 
C 	 -84.8831 	 48.164 	 126.968 	 
H 	 -82.9813 	 49.5812 	 124.62 	 
C 	 -84.497 	 47.0969 	 124.666 	 
H 	 -85.2589 	 46.3914 	 125.014 	 
H 	 -83.5855 	 46.5745 	 124.623 	 
C 	 -85.0596 	 47.6379 	 123.33 	 
H 	 -85.4148 	 46.9127 	 122.632 	 
H 	 -84.1677 	 48.0804 	 122.961 	 
C 	 -86.1042 	 48.7517 	 123.531 	 
H 	 -85.7641 	 49.6421 	 124.028 	 
H 	 -86.9381 	 48.3377 	 124.103 	 
H 	 -86.4354 	 49.0239 	 122.501 	 
H 	 -87.6095 	 45.7157 	 130.319 	 
H 	 -83.0853 	 51.2237 	 126.319 	 
