34

S 	 -4.18239 	 44.5448 	 34.031 	 
C 	 -3.07676 	 43.812 	 35.0828 	 
C 	 -1.96488 	 44.6641 	 35.1984 	 
C 	 -1.93263 	 45.7808 	 34.3289 	 
C 	 -3.08409 	 45.9201 	 33.5737 	 
H 	 -1.10369 	 46.453 	 34.129 	 
C 	 -0.844235 	 44.3137 	 36.1899 	 
H 	 -0.159828 	 43.6479 	 35.6713 	 
H 	 -1.28556 	 43.825 	 37.051 	 
C 	 0.0111023 	 45.4227 	 36.6657 	 
H 	 0.861793 	 45.0686 	 37.2413 	 
H 	 0.562383 	 45.853 	 35.7644 	 
C 	 -0.741204 	 46.5879 	 37.4354 	 
H 	 -1.12887 	 47.3327 	 36.7759 	 
H 	 -1.56129 	 46.101 	 38.0768 	 
H 	 -0.120495 	 47.167 	 38.0996 	 
S 	 -3.15083 	 46.4474 	 30.9207 	 
C 	 -3.8463 	 47.9271 	 30.3316 	 
C 	 -4.09172 	 48.7897 	 31.341 	 
C 	 -3.88684 	 48.237 	 32.5912 	 
C 	 -3.4386 	 46.9314 	 32.5847 	 
H 	 -4.46508 	 49.7972 	 31.233 	 
C 	 -4.12181 	 49.0363 	 33.8358 	 
H 	 -4.86788 	 48.6536 	 34.4637 	 
H 	 -4.67043 	 49.8953 	 33.4984 	 
C 	 -2.8797 	 49.4539 	 34.6755 	 
H 	 -2.58245 	 48.513 	 35.1717 	 
H 	 -3.13498 	 50.0835 	 35.466 	 
C 	 -1.73335 	 50.1128 	 33.8953 	 
H 	 -2.07969 	 51.0832 	 33.6406 	 
H 	 -1.52665 	 49.5715 	 32.9504 	 
H 	 -0.894485 	 50.4066 	 34.5781 	 
H 	 -3.16607 	 42.8927 	 35.6288 	 
H 	 -4.28192 	 48.1999 	 29.3536 	 
