34

S 	 -40.3984 	 34.0894 	 87.8944 	 
C 	 -41.9835 	 34.8095 	 87.961 	 
C 	 -42.9554 	 33.8003 	 87.855 	 
C 	 -42.4082 	 32.5809 	 87.4907 	 
C 	 -41.0286 	 32.6044 	 87.2503 	 
H 	 -43.0089 	 31.6035 	 87.3703 	 
C 	 -44.4665 	 33.8623 	 88.1631 	 
H 	 -44.5845 	 34.5798 	 88.9323 	 
H 	 -44.8662 	 32.9451 	 88.6507 	 
C 	 -45.3749 	 34.0958 	 86.9498 	 
H 	 -46.3571 	 34.1449 	 87.4215 	 
H 	 -45.1055 	 35.034 	 86.3835 	 
C 	 -45.4144 	 32.8793 	 86.0195 	 
H 	 -46.2048 	 33.0069 	 85.3212 	 
H 	 -44.5325 	 32.7123 	 85.3935 	 
H 	 -45.6543 	 31.9857 	 86.5654 	 
S 	 -38.5228 	 32.1652 	 86.5474 	 
C 	 -37.8785 	 30.6406 	 86.0907 	 
C 	 -38.8364 	 29.6934 	 86.248 	 
C 	 -40.144 	 30.1953 	 86.6282 	 
C 	 -40.1193 	 31.5308 	 86.8051 	 
H 	 -38.4623 	 28.723 	 85.967 	 
C 	 -41.3407 	 29.2867 	 86.7243 	 
H 	 -42.0829 	 29.692 	 86.0572 	 
H 	 -41.7808 	 29.3681 	 87.7324 	 
C 	 -41.2412 	 27.8101 	 86.5125 	 
H 	 -42.0835 	 27.3146 	 87.0792 	 
H 	 -40.3827 	 27.3974 	 87.1364 	 
C 	 -40.9934 	 27.2308 	 85.1119 	 
H 	 -40.1538 	 27.6235 	 84.482 	 
H 	 -41.8618 	 27.4547 	 84.4422 	 
H 	 -40.8595 	 26.105 	 85.1604 	 
H 	 -42.1785 	 35.8239 	 88.3028 	 
H 	 -36.9359 	 30.5172 	 85.5952 	 
