34

S 	 33.4585 	 30.7443 	 56.0777 	 
C 	 34.667 	 31.9707 	 55.8793 	 
C 	 35.5901 	 31.5453 	 54.883 	 
C 	 35.3594 	 30.2335 	 54.3731 	 
C 	 34.4408 	 29.5514 	 55.0841 	 
H 	 35.9646 	 29.7686 	 53.5441 	 
C 	 36.5585 	 32.4701 	 54.2431 	 
H 	 36.4667 	 33.4926 	 54.6272 	 
H 	 36.1717 	 32.5266 	 53.2245 	 
C 	 38.0425 	 32.0773 	 54.3404 	 
H 	 38.0902 	 31.0106 	 54.0172 	 
H 	 38.7099 	 32.6589 	 53.6559 	 
C 	 38.7251 	 32.3198 	 55.6898 	 
H 	 39.7694 	 32.0465 	 55.694 	 
H 	 38.5532 	 33.2215 	 56.2894 	 
H 	 38.384 	 31.6085 	 56.374 	 
S 	 35.1452 	 26.9617 	 54.2822 	 
C 	 34.002 	 25.6411 	 54.3681 	 
C 	 32.8283 	 26.0945 	 54.7719 	 
C 	 32.7543 	 27.4862 	 54.9969 	 
C 	 34.0049 	 28.1308 	 54.8661 	 
H 	 32.0451 	 25.3709 	 54.7284 	 
C 	 31.528 	 28.2055 	 55.5543 	 
H 	 31.4259 	 29.1622 	 55.1515 	 
H 	 31.8704 	 28.3171 	 56.5935 	 
C 	 30.2244 	 27.3879 	 55.4404 	 
H 	 30.4721 	 26.3402 	 55.6705 	 
H 	 30.0259 	 27.3652 	 54.344 	 
C 	 29.128 	 27.9444 	 56.3727 	 
H 	 28.9712 	 28.9524 	 56.1131 	 
H 	 29.363 	 27.939 	 57.4416 	 
H 	 28.2452 	 27.4022 	 56.2006 	 
H 	 34.5504 	 32.9227 	 56.3144 	 
H 	 34.04 	 24.5473 	 54.287 	 
