34

S 	 -36.0122 	 70.7036 	 170.888 	 
C 	 -34.4872 	 71.3703 	 171.109 	 
C 	 -34.2986 	 72.0279 	 172.318 	 
C 	 -35.4414 	 71.7727 	 173.186 	 
C 	 -36.3755 	 70.8949 	 172.626 	 
H 	 -35.5394 	 72.1014 	 174.234 	 
C 	 -33.142 	 72.954 	 172.674 	 
H 	 -32.2503 	 72.3695 	 172.923 	 
H 	 -33.461 	 73.5247 	 173.521 	 
C 	 -32.7444 	 73.9611 	 171.6 	 
H 	 -32.3839 	 73.3195 	 170.79 	 
H 	 -33.5613 	 74.3427 	 171.036 	 
C 	 -31.7031 	 75.0009 	 172.041 	 
H 	 -32.2336 	 75.5781 	 172.779 	 
H 	 -30.8947 	 74.5721 	 172.524 	 
H 	 -31.3395 	 75.7494 	 171.375 	 
S 	 -38.976 	 70.312 	 172.211 	 
C 	 -40.0461 	 69.8061 	 173.441 	 
C 	 -39.3118 	 69.4088 	 174.552 	 
C 	 -37.8926 	 69.6487 	 174.385 	 
C 	 -37.6086 	 70.3437 	 173.238 	 
H 	 -39.7715 	 68.8965 	 175.401 	 
C 	 -36.9113 	 69.4472 	 175.517 	 
H 	 -35.9445 	 69.8324 	 175.177 	 
H 	 -36.7464 	 68.3428 	 175.716 	 
C 	 -37.2159 	 70.1945 	 176.809 	 
H 	 -36.5256 	 69.6929 	 177.542 	 
H 	 -38.2366 	 69.9694 	 177.185 	 
C 	 -36.9559 	 71.6801 	 176.757 	 
H 	 -37.4011 	 72.0581 	 175.813 	 
H 	 -35.8517 	 71.7316 	 176.798 	 
H 	 -37.3489 	 72.2349 	 177.619 	 
H 	 -33.8926 	 71.4079 	 170.193 	 
H 	 -41.1141 	 69.6902 	 173.241 	 
