34

S 	 43.0052 	 16.9776 	 46.5467 	 
C 	 42.8137 	 16.0397 	 45.0846 	 
C 	 42.6998 	 16.8579 	 44.0018 	 
C 	 43.2099 	 18.1371 	 44.2855 	 
C 	 43.4223 	 18.3936 	 45.5862 	 
H 	 43.2941 	 18.8471 	 43.4965 	 
C 	 42.3321 	 16.4007 	 42.5924 	 
H 	 42.0405 	 15.337 	 42.6288 	 
H 	 43.1244 	 16.6328 	 41.8913 	 
C 	 41.0816 	 17.1775 	 42.0527 	 
H 	 41.225 	 18.246 	 42.1745 	 
H 	 40.9231 	 16.9829 	 41.0159 	 
C 	 39.7872 	 16.806 	 42.7757 	 
H 	 38.9758 	 17.098 	 42.1889 	 
H 	 39.669 	 15.767 	 43.1432 	 
H 	 39.7835 	 17.3187 	 43.7567 	 
S 	 45.5909 	 19.9396 	 46.2308 	 
C 	 45.3394 	 21.5006 	 46.8752 	 
C 	 44.0501 	 21.8298 	 47.0817 	 
C 	 43.1894 	 20.6869 	 46.8171 	 
C 	 43.8528 	 19.6547 	 46.1477 	 
H 	 43.8416 	 22.7997 	 47.5521 	 
C 	 41.7452 	 20.6166 	 47.3588 	 
H 	 41.8903 	 20.4338 	 48.3671 	 
H 	 41.1831 	 19.8328 	 46.889 	 
C 	 40.9169 	 21.8931 	 47.0449 	 
H 	 41.2837 	 22.6781 	 47.7157 	 
H 	 39.8445 	 21.8281 	 47.2894 	 
C 	 40.9499 	 22.541 	 45.6879 	 
H 	 40.5479 	 21.8872 	 44.9339 	 
H 	 42.015 	 22.8937 	 45.6097 	 
H 	 40.4803 	 23.5778 	 45.7745 	 
H 	 42.6306 	 14.9559 	 45.1582 	 
H 	 46.1459 	 22.1371 	 47.1905 	 
