34

S 	 -57.8684 	 37.4002 	 114.251 	 
C 	 -56.3815 	 36.9045 	 113.437 	 
C 	 -55.5215 	 37.9605 	 113.401 	 
C 	 -55.9125 	 39.1338 	 114.099 	 
C 	 -57.0798 	 38.8809 	 114.772 	 
H 	 -55.4132 	 40.0731 	 114.13 	 
C 	 -54.3386 	 38.0155 	 112.497 	 
H 	 -54.7198 	 38.2349 	 111.504 	 
H 	 -54.034 	 36.9758 	 112.488 	 
C 	 -53.1171 	 38.8925 	 112.954 	 
H 	 -52.3371 	 38.9144 	 112.174 	 
H 	 -53.478 	 39.8541 	 113.135 	 
C 	 -52.4499 	 38.2419 	 114.142 	 
H 	 -52.1829 	 37.247 	 113.94 	 
H 	 -51.581 	 38.903 	 114.532 	 
H 	 -53.1774 	 38.1344 	 114.958 	 
S 	 -59.5361 	 40.3474 	 115.197 	 
C 	 -59.5504 	 41.5636 	 116.497 	 
C 	 -58.4449 	 41.4556 	 117.28 	 
C 	 -57.4449 	 40.6416 	 116.643 	 
C 	 -57.8603 	 39.9107 	 115.529 	 
H 	 -58.2841 	 42.0102 	 118.11 	 
C 	 -56.0187 	 40.7067 	 117.195 	 
H 	 -55.8909 	 41.6527 	 117.74 	 
H 	 -55.3439 	 40.7619 	 116.359 	 
C 	 -55.6442 	 39.5432 	 118.152 	 
H 	 -55.695 	 38.5208 	 117.731 	 
H 	 -56.368 	 39.7303 	 118.933 	 
C 	 -54.3313 	 39.8241 	 118.797 	 
H 	 -53.3637 	 39.4707 	 118.296 	 
H 	 -54.1732 	 39.2243 	 119.667 	 
H 	 -54.3017 	 40.8292 	 119.073 	 
H 	 -56.1979 	 35.9957 	 112.864 	 
H 	 -60.5072 	 41.9784 	 116.826 	 
