34

S 	 -7.96498 	 47.6132 	 32.0472 	 
C 	 -6.23427 	 47.0428 	 32.0651 	 
C 	 -5.3377 	 48.126 	 31.9863 	 
C 	 -6.02181 	 49.3936 	 31.9443 	 
C 	 -7.35963 	 49.2439 	 32.1257 	 
H 	 -5.5885 	 50.3779 	 31.8645 	 
C 	 -3.83436 	 48.0563 	 31.7704 	 
H 	 -3.76435 	 48.3179 	 30.6794 	 
H 	 -3.55284 	 47.0095 	 31.9072 	 
C 	 -2.97775 	 48.755 	 32.7317 	 
H 	 -3.07691 	 49.8343 	 32.7482 	 
H 	 -3.30675 	 48.3867 	 33.7396 	 
C 	 -1.4869 	 48.4796 	 32.5573 	 
H 	 -1.28422 	 47.4399 	 32.6617 	 
H 	 -1.01042 	 48.9059 	 31.57 	 
H 	 -0.904642 	 48.829 	 33.4273 	 
S 	 -8.77989 	 50.9297 	 30.5795 	 
C 	 -9.55723 	 52.3245 	 31.2941 	 
C 	 -9.43495 	 52.3209 	 32.7099 	 
C 	 -8.62739 	 51.2544 	 33.2397 	 
C 	 -8.27856 	 50.3894 	 32.161 	 
H 	 -9.90129 	 53.0361 	 33.3278 	 
C 	 -8.34743 	 51.1063 	 34.7689 	 
H 	 -9.039 	 50.2869 	 35.0614 	 
H 	 -8.67887 	 51.9471 	 35.2633 	 
C 	 -6.89167 	 50.917 	 35.2955 	 
H 	 -6.38148 	 50.1415 	 34.8656 	 
H 	 -6.94726 	 50.6838 	 36.3452 	 
C 	 -6.0367 	 52.2094 	 35.1633 	 
H 	 -6.47823 	 53.1733 	 35.5131 	 
H 	 -5.78247 	 52.5866 	 34.1878 	 
H 	 -5.0599 	 52.1637 	 35.673 	 
H 	 -5.972 	 45.989 	 32.0514 	 
H 	 -10.0251 	 53.112 	 30.8133 	 
