34

S 	 -7.3851 	 36.0545 	 34.9005 	 
C 	 -6.77645 	 35.6955 	 33.2721 	 
C 	 -7.75263 	 35.9432 	 32.2895 	 
C 	 -8.87 	 36.6861 	 32.8625 	 
C 	 -8.78945 	 36.9342 	 34.2199 	 
H 	 -9.67368 	 37.1091 	 32.3059 	 
C 	 -7.51649 	 35.717 	 30.7878 	 
H 	 -8.45481 	 35.6269 	 30.2186 	 
H 	 -6.95517 	 34.8266 	 30.6166 	 
C 	 -6.81023 	 36.9322 	 30.0491 	 
H 	 -7.40642 	 37.7672 	 30.3093 	 
H 	 -5.81644 	 37.1805 	 30.4542 	 
C 	 -6.69614 	 36.5862 	 28.4897 	 
H 	 -6.28187 	 37.4896 	 28.0254 	 
H 	 -6.1072 	 35.6758 	 28.3371 	 
H 	 -7.6548 	 36.3576 	 28.0055 	 
S 	 -8.93975 	 39.1782 	 35.8985 	 
C 	 -10.3546 	 39.4245 	 36.7707 	 
C 	 -11.3127 	 38.5013 	 36.4797 	 
C 	 -10.9074 	 37.4832 	 35.4812 	 
C 	 -9.61646 	 37.7652 	 35.0507 	 
H 	 -12.3026 	 38.7 	 36.9886 	 
C 	 -11.7759 	 36.3252 	 35.0487 	 
H 	 -12.481 	 36.0931 	 35.8686 	 
H 	 -11.2372 	 35.4029 	 35.0105 	 
C 	 -12.7062 	 36.6471 	 33.8316 	 
H 	 -13.367 	 35.7313 	 33.716 	 
H 	 -12.1762 	 36.7728 	 32.9152 	 
C 	 -13.674 	 37.7842 	 33.9795 	 
H 	 -14.3706 	 37.9076 	 34.7899 	 
H 	 -14.2359 	 37.9893 	 33.0088 	 
H 	 -12.9858 	 38.619 	 34.088 	 
H 	 -5.82751 	 35.2948 	 33.0514 	 
H 	 -10.4426 	 40.2197 	 37.517 	 
