34

S 	 -46.6312 	 52.6267 	 106.001 	 
C 	 -45.5153 	 51.8634 	 104.899 	 
C 	 -44.3697 	 52.6332 	 104.848 	 
C 	 -44.4863 	 53.9117 	 105.518 	 
C 	 -45.5695 	 53.9688 	 106.297 	 
H 	 -43.6934 	 54.6409 	 105.664 	 
C 	 -43.1084 	 52.3496 	 104.093 	 
H 	 -43.3001 	 51.2871 	 103.711 	 
H 	 -42.306 	 52.3044 	 104.808 	 
C 	 -42.8489 	 53.1813 	 102.815 	 
H 	 -42.4647 	 54.1568 	 103.093 	 
H 	 -41.9817 	 52.817 	 102.276 	 
C 	 -44.0923 	 53.2977 	 101.939 	 
H 	 -44.9619 	 53.5461 	 102.556 	 
H 	 -43.9684 	 54.0078 	 101.123 	 
H 	 -44.31 	 52.2803 	 101.558 	 
S 	 -46.6458 	 54.779 	 108.715 	 
C 	 -46.811 	 56.5047 	 109.028 	 
C 	 -46.3687 	 57.2485 	 108.015 	 
C 	 -46.0453 	 56.4577 	 106.864 	 
C 	 -45.9379 	 55.106 	 107.143 	 
H 	 -46.3635 	 58.3038 	 108.105 	 
C 	 -45.6188 	 57.1323 	 105.611 	 
H 	 -44.9501 	 56.4628 	 105.18 	 
H 	 -44.9962 	 57.9392 	 105.919 	 
C 	 -46.6926 	 57.6145 	 104.613 	 
H 	 -47.2134 	 56.7768 	 104.216 	 
H 	 -46.2863 	 58.1083 	 103.755 	 
C 	 -47.6341 	 58.6781 	 105.3 	 
H 	 -48.5526 	 58.6751 	 104.708 	 
H 	 -47.2267 	 59.7175 	 105.381 	 
H 	 -48.0125 	 58.3724 	 106.349 	 
H 	 -45.662 	 50.8715 	 104.484 	 
H 	 -47.1928 	 56.945 	 109.949 	 
