34

S 	 -49.6076 	 62.6154 	 129.572 	 
C 	 -48.3267 	 62.1101 	 128.522 	 
C 	 -48.8851 	 61.4781 	 127.421 	 
C 	 -50.2888 	 61.2263 	 127.527 	 
C 	 -50.8318 	 61.6294 	 128.71 	 
H 	 -50.8683 	 60.754 	 126.738 	 
C 	 -48.0732 	 61.2162 	 126.153 	 
H 	 -47.2027 	 61.9126 	 126.148 	 
H 	 -48.6868 	 61.5557 	 125.293 	 
C 	 -47.6261 	 59.7437 	 126.076 	 
H 	 -47.0786 	 59.4692 	 127.024 	 
H 	 -48.584 	 59.1589 	 125.926 	 
C 	 -46.6421 	 59.251 	 124.975 	 
H 	 -45.5777 	 59.5905 	 125.199 	 
H 	 -46.6148 	 58.1744 	 124.99 	 
H 	 -46.9051 	 59.5487 	 123.965 	 
S 	 -52.9974 	 63.0026 	 129.742 	 
C 	 -54.5774 	 62.2138 	 129.809 	 
C 	 -54.5054 	 60.8765 	 129.435 	 
C 	 -53.1937 	 60.5374 	 128.964 	 
C 	 -52.2525 	 61.5782 	 129.104 	 
H 	 -55.3748 	 60.1655 	 129.507 	 
C 	 -52.8788 	 59.1946 	 128.398 	 
H 	 -52.0804 	 59.2774 	 127.637 	 
H 	 -53.7824 	 58.8015 	 127.837 	 
C 	 -52.4194 	 58.1579 	 129.493 	 
H 	 -53.3514 	 57.9879 	 129.988 	 
H 	 -51.7285 	 58.7069 	 130.16 	 
C 	 -51.8458 	 56.8946 	 128.759 	 
H 	 -51.4002 	 56.0757 	 129.338 	 
H 	 -50.9714 	 57.0867 	 128.102 	 
H 	 -52.6912 	 56.4244 	 128.242 	 
H 	 -47.2395 	 62.3177 	 128.559 	 
H 	 -55.541 	 62.5801 	 130.25 	 
