34

S 	 7.78546 	 -12.1768 	 64.8854 	 
C 	 7.19387 	 -11.2391 	 63.5313 	 
C 	 7.22064 	 -9.85799 	 63.8198 	 
C 	 7.84744 	 -9.5896 	 65.1053 	 
C 	 8.19352 	 -10.7587 	 65.7927 	 
H 	 7.98429 	 -8.59382 	 65.533 	 
C 	 6.86146 	 -8.72689 	 62.8373 	 
H 	 6.61866 	 -7.79038 	 63.4309 	 
H 	 5.92991 	 -9.01547 	 62.3681 	 
C 	 7.93302 	 -8.5173 	 61.7916 	 
H 	 8.29595 	 -9.4604 	 61.3684 	 
H 	 7.37197 	 -7.95128 	 61.0276 	 
C 	 9.15206 	 -7.7242 	 62.4277 	 
H 	 10.118 	 -8.00299 	 61.953 	 
H 	 9.04271 	 -6.69387 	 62.5847 	 
H 	 9.22906 	 -8.07828 	 63.4655 	 
S 	 9.44835 	 -9.33569 	 67.7894 	 
C 	 9.90375 	 -10.1247 	 69.3338 	 
C 	 9.49431 	 -11.4383 	 69.2977 	 
C 	 8.66823 	 -11.7623 	 68.1441 	 
C 	 8.63134 	 -10.7476 	 67.1812 	 
H 	 9.81149 	 -12.0532 	 70.1398 	 
C 	 8.05739 	 -13.1754 	 68.2269 	 
H 	 7.10634 	 -13.2258 	 67.7409 	 
H 	 7.78577 	 -13.5485 	 69.2821 	 
C 	 8.89633 	 -14.2072 	 67.6122 	 
H 	 9.98228 	 -14.2245 	 68.0617 	 
H 	 9.00255 	 -14.0177 	 66.5575 	 
C 	 8.2551 	 -15.6288 	 67.7597 	 
H 	 8.29549 	 -15.9032 	 68.8644 	 
H 	 8.83692 	 -16.305 	 67.1577 	 
H 	 7.29361 	 -15.7758 	 67.2888 	 
H 	 6.99022 	 -11.7183 	 62.6288 	 
H 	 10.5178 	 -9.81265 	 70.2113 	 
