34

S 	 29.7351 	 25.6427 	 50.976 	 
C 	 29.4074 	 26.7198 	 49.6652 	 
C 	 29.4513 	 28.058 	 50.0145 	 
C 	 29.74 	 28.1348 	 51.4346 	 
C 	 29.9312 	 26.9572 	 52.0989 	 
H 	 29.8136 	 29.0178 	 51.898 	 
C 	 29.3542 	 29.251 	 49.0332 	 
H 	 29.1415 	 30.196 	 49.569 	 
H 	 28.4877 	 29.044 	 48.345 	 
C 	 30.6787 	 29.5236 	 48.318 	 
H 	 31.4385 	 29.754 	 49.0823 	 
H 	 31.0536 	 28.6384 	 47.6782 	 
C 	 30.7008 	 30.6976 	 47.344 	 
H 	 30.6629 	 31.6255 	 47.7981 	 
H 	 31.6619 	 30.4922 	 46.767 	 
H 	 29.7701 	 30.622 	 46.6558 	 
S 	 31.8464 	 26.2848 	 53.9655 	 
C 	 31.3742 	 25.9122 	 55.5838 	 
C 	 30.038 	 26.1254 	 55.7797 	 
C 	 29.3691 	 26.6538 	 54.6426 	 
C 	 30.1737 	 26.7291 	 53.5159 	 
H 	 29.6101 	 25.8391 	 56.7049 	 
C 	 27.8369 	 26.8124 	 54.6104 	 
H 	 27.4089 	 27.5462 	 53.8895 	 
H 	 27.5534 	 27.1396 	 55.6171 	 
C 	 26.9934 	 25.5099 	 54.4523 	 
H 	 27.242 	 24.7578 	 55.2144 	 
H 	 27.2183 	 25.0816 	 53.3898 	 
C 	 25.4842 	 25.7028 	 54.5547 	 
H 	 25.1501 	 26.6911 	 54.3742 	 
H 	 25.1167 	 25.4053 	 55.5315 	 
H 	 24.8273 	 25.1591 	 53.8697 	 
H 	 29.4729 	 26.4269 	 48.5527 	 
H 	 32.0409 	 25.5222 	 56.3317 	 
