34

S 	 43.8903 	 22.3556 	 101.191 	 
C 	 44.2851 	 23.0459 	 99.6393 	 
C 	 44.3146 	 22.0046 	 98.643 	 
C 	 44.1714 	 20.7066 	 99.2217 	 
C 	 43.9921 	 20.7552 	 100.598 	 
H 	 44.2286 	 19.7124 	 98.7686 	 
C 	 44.7248 	 22.1422 	 97.2138 	 
H 	 44.9404 	 21.1286 	 96.7975 	 
H 	 45.6329 	 22.6775 	 97.2043 	 
C 	 43.5896 	 22.7138 	 96.2878 	 
H 	 42.7698 	 21.9886 	 96.235 	 
H 	 43.1315 	 23.5793 	 96.7964 	 
C 	 44.0008 	 23.1082 	 94.8669 	 
H 	 43.0896 	 23.2534 	 94.3116 	 
H 	 44.575 	 23.9729 	 94.8772 	 
H 	 44.5775 	 22.2926 	 94.4529 	 
S 	 42.6302 	 18.9444 	 102.199 	 
C 	 43.5061 	 17.6851 	 102.935 	 
C 	 44.7984 	 17.607 	 102.576 	 
C 	 45.1993 	 18.7186 	 101.734 	 
C 	 44.1502 	 19.6007 	 101.513 	 
H 	 45.3572 	 16.75 	 102.866 	 
C 	 46.6117 	 18.7742 	 101.101 	 
H 	 47.3972 	 18.4769 	 101.909 	 
H 	 46.677 	 19.8328 	 100.951 	 
C 	 46.9686 	 17.9687 	 99.7816 	 
H 	 47.9783 	 18.1849 	 99.444 	 
H 	 46.3207 	 18.3802 	 98.9657 	 
C 	 46.8316 	 16.4589 	 99.7379 	 
H 	 47.3588 	 16.1402 	 100.621 	 
H 	 47.157 	 15.9264 	 98.8655 	 
H 	 45.7737 	 16.1614 	 99.9128 	 
H 	 44.5985 	 24.0791 	 99.4189 	 
H 	 42.9745 	 16.9949 	 103.609 	 
