34

S 	 -41.999 	 54.6061 	 107.918 	 
C 	 -40.4859 	 55.3412 	 107.49 	 
C 	 -39.4406 	 54.3704 	 107.342 	 
C 	 -39.9951 	 53.0592 	 107.427 	 
C 	 -41.3223 	 53.045 	 107.558 	 
H 	 -39.4725 	 52.1628 	 107.294 	 
C 	 -37.9965 	 54.7437 	 107.193 	 
H 	 -37.9294 	 55.8038 	 107.236 	 
H 	 -37.6385 	 54.4721 	 106.165 	 
C 	 -37.0336 	 54.154 	 108.223 	 
H 	 -36.8521 	 53.0867 	 108.054 	 
H 	 -36.0644 	 54.5746 	 108.02 	 
C 	 -37.1141 	 54.2795 	 109.755 	 
H 	 -37.4044 	 55.3165 	 110.034 	 
H 	 -37.8917 	 53.6818 	 110.155 	 
H 	 -36.1923 	 53.9482 	 110.234 	 
S 	 -43.0321 	 51.9413 	 109.281 	 
C 	 -43.8469 	 50.4909 	 108.769 	 
C 	 -43.1138 	 49.8135 	 107.791 	 
C 	 -42.1676 	 50.6107 	 107.158 	 
C 	 -42.1149 	 51.8612 	 107.784 	 
H 	 -43.3791 	 48.808 	 107.522 	 
C 	 -41.3443 	 50.1651 	 105.977 	 
H 	 -40.807 	 50.9579 	 105.511 	 
H 	 -41.957 	 49.8186 	 105.147 	 
C 	 -40.3211 	 49.033 	 106.274 	 
H 	 -40.8623 	 48.2641 	 106.733 	 
H 	 -39.6821 	 49.419 	 107.06 	 
C 	 -39.751 	 48.5411 	 105.013 	 
H 	 -39.2838 	 49.3002 	 104.43 	 
H 	 -40.4936 	 48.0311 	 104.387 	 
H 	 -38.9831 	 47.6667 	 105.117 	 
H 	 -40.3658 	 56.3958 	 107.515 	 
H 	 -44.7009 	 50.1144 	 109.365 	 
