34

S 	 -101.269 	 44.4939 	 123.598 	 
C 	 -102.58 	 44.6294 	 124.61 	 
C 	 -103.702 	 45.0559 	 123.989 	 
C 	 -103.513 	 45.2177 	 122.585 	 
C 	 -102.222 	 44.841 	 122.188 	 
H 	 -104.26 	 45.5507 	 121.839 	 
C 	 -104.948 	 45.2438 	 124.776 	 
H 	 -105.003 	 44.5948 	 125.613 	 
H 	 -105.797 	 44.9529 	 124.095 	 
C 	 -105.27 	 46.6931 	 125.174 	 
H 	 -104.408 	 47.0824 	 125.699 	 
H 	 -105.266 	 47.3644 	 124.305 	 
C 	 -106.517 	 46.8153 	 126.069 	 
H 	 -106.324 	 47.8454 	 126.556 	 
H 	 -107.544 	 46.8352 	 125.57 	 
H 	 -106.507 	 46.1632 	 126.922 	 
S 	 -100.109 	 45.6563 	 120.614 	 
C 	 -100.125 	 45.4879 	 118.919 	 
C 	 -101.266 	 44.8123 	 118.506 	 
C 	 -102.153 	 44.4583 	 119.665 	 
C 	 -101.654 	 44.9258 	 120.886 	 
H 	 -101.442 	 44.6477 	 117.494 	 
C 	 -103.44 	 43.6451 	 119.506 	 
H 	 -103.906 	 43.5619 	 120.478 	 
H 	 -103.171 	 42.6789 	 119.065 	 
C 	 -104.432 	 44.1918 	 118.572 	 
H 	 -105.285 	 43.5414 	 118.416 	 
H 	 -104.062 	 44.3298 	 117.516 	 
C 	 -105.113 	 45.5344 	 119.014 	 
H 	 -105.507 	 45.4953 	 120.02 	 
H 	 -105.94 	 45.991 	 118.449 	 
H 	 -104.274 	 46.222 	 119.015 	 
H 	 -102.501 	 44.3689 	 125.667 	 
H 	 -99.297 	 45.6071 	 118.237 	 
