34

S 	 -70.5945 	 48.1559 	 135.071 	 
C 	 -70.7382 	 48.8557 	 133.476 	 
C 	 -71.0733 	 48.0066 	 132.472 	 
C 	 -71.1478 	 46.6846 	 132.978 	 
C 	 -70.9127 	 46.5416 	 134.314 	 
H 	 -71.3233 	 45.7544 	 132.402 	 
C 	 -71.2708 	 48.3191 	 130.945 	 
H 	 -71.9657 	 47.5781 	 130.555 	 
H 	 -70.3242 	 47.9174 	 130.619 	 
C 	 -71.6091 	 49.7795 	 130.477 	 
H 	 -72.415 	 50.0887 	 131.19 	 
H 	 -70.7487 	 50.4999 	 130.599 	 
C 	 -72.3076 	 49.8568 	 129.168 	 
H 	 -72.4253 	 50.8659 	 128.787 	 
H 	 -71.7842 	 49.2917 	 128.406 	 
H 	 -73.3046 	 49.439 	 129.233 	 
S 	 -72.0231 	 45.0327 	 136.388 	 
C 	 -71.5451 	 43.4307 	 136.702 	 
C 	 -70.5639 	 43.0933 	 135.815 	 
C 	 -70.3417 	 44.0588 	 134.789 	 
C 	 -70.9975 	 45.2425 	 135.029 	 
H 	 -70.2203 	 42.0956 	 135.768 	 
C 	 -69.4215 	 43.7244 	 133.694 	 
H 	 -68.5453 	 43.2044 	 134.108 	 
H 	 -69.0945 	 44.6832 	 133.229 	 
C 	 -69.9646 	 42.7953 	 132.501 	 
H 	 -70.9222 	 43.1315 	 132.063 	 
H 	 -70.193 	 41.7893 	 132.874 	 
C 	 -68.8929 	 42.5223 	 131.398 	 
H 	 -67.9372 	 42.1281 	 131.693 	 
H 	 -68.5413 	 43.4194 	 130.903 	 
H 	 -69.2997 	 41.9302 	 130.59 	 
H 	 -70.5397 	 49.9401 	 133.358 	 
H 	 -71.7546 	 42.9865 	 137.695 	 
