34

S 	 7.54295 	 -10.3157 	 64.7637 	 
C 	 7.36476 	 -11.8602 	 65.5639 	 
C 	 6.10815 	 -11.958 	 66.1669 	 
C 	 5.21281 	 -10.9713 	 65.7034 	 
C 	 5.84003 	 -10.0426 	 64.8665 	 
H 	 4.15123 	 -10.9741 	 65.927 	 
C 	 5.67134 	 -13.0764 	 67.0844 	 
H 	 4.68542 	 -12.8063 	 67.511 	 
H 	 6.30864 	 -13.0665 	 67.927 	 
C 	 5.41324 	 -14.4505 	 66.4801 	 
H 	 6.21747 	 -14.7804 	 65.7982 	 
H 	 5.39224 	 -15.2383 	 67.2327 	 
C 	 4.07289 	 -14.4609 	 65.6828 	 
H 	 4.19795 	 -13.9139 	 64.7919 	 
H 	 3.85598 	 -15.4856 	 65.3294 	 
H 	 3.20379 	 -14.0217 	 66.2127 	 
S 	 5.85499 	 -7.4011 	 64.1388 	 
C 	 4.57843 	 -6.75288 	 63.0948 	 
C 	 3.61815 	 -7.71781 	 62.9301 	 
C 	 3.94313 	 -9.01345 	 63.4553 	 
C 	 5.22047 	 -9.05579 	 63.9951 	 
H 	 2.66593 	 -7.35874 	 62.4442 	 
C 	 3.10653 	 -10.1601 	 63.3347 	 
H 	 2.28488 	 -9.95191 	 64.0105 	 
H 	 3.6552 	 -10.9913 	 63.8344 	 
C 	 2.54474 	 -10.6027 	 61.9701 	 
H 	 3.35328 	 -10.8962 	 61.3289 	 
H 	 2.03308 	 -9.73945 	 61.7273 	 
C 	 1.5522 	 -11.7591 	 62.1073 	 
H 	 0.917253 	 -11.9308 	 61.2471 	 
H 	 0.907838 	 -11.4596 	 62.9499 	 
H 	 1.97962 	 -12.7426 	 62.4023 	 
H 	 8.20436 	 -12.5637 	 65.7551 	 
H 	 4.49053 	 -5.66325 	 62.8023 	 
