34

S 	 26.5511 	 4.04271 	 77.2675 	 
C 	 27.7115 	 5.19015 	 77.8463 	 
C 	 28.6713 	 4.58292 	 78.6264 	 
C 	 28.5043 	 3.17566 	 78.626 	 
C 	 27.4444 	 2.67207 	 77.9769 	 
H 	 29.2037 	 2.43174 	 79.0575 	 
C 	 29.8646 	 5.22012 	 79.3174 	 
H 	 29.7069 	 5.12556 	 80.3629 	 
H 	 29.6868 	 6.29897 	 79.2091 	 
C 	 31.2678 	 4.7409 	 78.9142 	 
H 	 32.1748 	 5.11968 	 79.4028 	 
H 	 31.3133 	 3.6323 	 79.0323 	 
C 	 31.4546 	 5.03295 	 77.4223 	 
H 	 32.2901 	 4.56628 	 77.1079 	 
H 	 30.6749 	 4.51027 	 76.7996 	 
H 	 31.5256 	 6.06324 	 77.1628 	 
S 	 28.2252 	 0.0791379 	 78.4736 	 
C 	 27.3227 	 -1.27631 	 77.7816 	 
C 	 26.1168 	 -0.796155 	 77.2583 	 
C 	 25.9966 	 0.65778 	 77.2107 	 
C 	 27.0814 	 1.26914 	 77.8198 	 
H 	 25.3418 	 -1.55203 	 76.8999 	 
C 	 24.7721 	 1.31282 	 76.6124 	 
H 	 24.6725 	 2.16768 	 77.248 	 
H 	 23.9554 	 0.646079 	 76.8522 	 
C 	 24.9033 	 1.59978 	 75.137 	 
H 	 25.1556 	 0.713147 	 74.6067 	 
H 	 25.6476 	 2.40896 	 74.9441 	 
C 	 23.4763 	 2.00228 	 74.5992 	 
H 	 23.1715 	 2.80134 	 75.3503 	 
H 	 22.7358 	 1.2291 	 74.6909 	 
H 	 23.3068 	 2.54682 	 73.6141 	 
H 	 27.7517 	 6.29091 	 77.5993 	 
H 	 27.5125 	 -2.30034 	 78.0916 	 
