34

S 	 -2.19366 	 -23.7053 	 60.5641 	 
C 	 -2.72721 	 -23.332 	 58.91 	 
C 	 -2.95459 	 -21.9796 	 58.7202 	 
C 	 -2.50795 	 -21.2296 	 59.8537 	 
C 	 -2.07476 	 -21.9885 	 60.9677 	 
H 	 -2.46073 	 -20.1508 	 60.0391 	 
C 	 -3.5075 	 -21.3948 	 57.4478 	 
H 	 -2.80793 	 -21.699 	 56.657 	 
H 	 -3.45969 	 -20.2481 	 57.5695 	 
C 	 -4.87735 	 -21.887 	 57.0254 	 
H 	 -5.21147 	 -21.6483 	 55.9947 	 
H 	 -4.77732 	 -22.9437 	 56.9628 	 
C 	 -5.91833 	 -21.4073 	 58.0381 	 
H 	 -5.97112 	 -20.3071 	 58.1382 	 
H 	 -6.81024 	 -21.9311 	 57.8996 	 
H 	 -5.46551 	 -21.6102 	 59.0088 	 
S 	 -2.15534 	 -20.3472 	 63.1294 	 
C 	 -0.865353 	 -20.2888 	 64.2721 	 
C 	 0.0692493 	 -21.246 	 64.0289 	 
C 	 -0.100148 	 -21.9022 	 62.7842 	 
C 	 -1.34212 	 -21.5405 	 62.1469 	 
H 	 1.01383 	 -21.2275 	 64.7213 	 
C 	 0.870138 	 -22.9158 	 62.305 	 
H 	 0.495628 	 -23.5435 	 61.5162 	 
H 	 1.01008 	 -23.6071 	 63.1805 	 
C 	 2.29929 	 -22.2802 	 61.9625 	 
H 	 3.05582 	 -22.9746 	 61.8338 	 
H 	 2.59183 	 -21.6255 	 62.8479 	 
C 	 2.35832 	 -21.4033 	 60.6886 	 
H 	 1.35073 	 -20.872 	 60.5086 	 
H 	 2.43249 	 -22.0663 	 59.8019 	 
H 	 3.22321 	 -20.725 	 60.787 	 
H 	 -2.93241 	 -24.0329 	 58.1413 	 
H 	 -0.831319 	 -19.664 	 65.1463 	 
