34

S 	 -27.3854 	 32.7435 	 40.1389 	 
C 	 -26.0205 	 32.9112 	 39.0962 	 
C 	 -25.1055 	 31.8551 	 39.3284 	 
C 	 -25.4572 	 31.093 	 40.474 	 
C 	 -26.7254 	 31.3592 	 40.9317 	 
H 	 -24.92 	 30.2692 	 40.9193 	 
C 	 -23.7657 	 31.8097 	 38.6259 	 
H 	 -23.1334 	 32.3672 	 39.2938 	 
H 	 -23.677 	 32.4232 	 37.7313 	 
C 	 -23.2538 	 30.3666 	 38.3224 	 
H 	 -23.2078 	 29.7249 	 39.1922 	 
H 	 -23.8125 	 29.8413 	 37.5302 	 
C 	 -21.7981 	 30.3865 	 37.8949 	 
H 	 -21.6692 	 30.7364 	 36.9678 	 
H 	 -21.2523 	 31.0673 	 38.5525 	 
H 	 -21.2583 	 29.4212 	 37.9903 	 
S 	 -28.9378 	 29.7249 	 41.0986 	 
C 	 -29.4897 	 28.904 	 42.5333 	 
C 	 -28.5741 	 29.2671 	 43.5308 	 
C 	 -27.5255 	 30.2208 	 43.1233 	 
C 	 -27.554 	 30.5293 	 41.789 	 
H 	 -28.744 	 28.9364 	 44.5565 	 
C 	 -26.4255 	 30.7622 	 44.0568 	 
H 	 -25.609 	 31.0967 	 43.5125 	 
H 	 -26.0588 	 30.0043 	 44.7383 	 
C 	 -26.8449 	 31.8616 	 45.0457 	 
H 	 -27.4225 	 32.5848 	 44.4524 	 
H 	 -25.9297 	 32.3487 	 45.4908 	 
C 	 -27.7073 	 31.4173 	 46.2412 	 
H 	 -27.2371 	 30.5103 	 46.7745 	 
H 	 -28.677 	 31.0342 	 46.0277 	 
H 	 -27.84 	 32.1994 	 47.0058 	 
H 	 -25.788 	 33.7302 	 38.4188 	 
H 	 -30.2701 	 28.1853 	 42.7628 	 
