34

S 	 -7.85636 	 68.7286 	 48.2589 	 
C 	 -8.44156 	 67.6183 	 47.0639 	 
C 	 -9.05377 	 66.4737 	 47.609 	 
C 	 -8.91401 	 66.4977 	 49.0033 	 
C 	 -8.51066 	 67.7501 	 49.5351 	 
H 	 -9.14646 	 65.7199 	 49.6397 	 
C 	 -9.70658 	 65.2795 	 46.8604 	 
H 	 -10.2754 	 64.7693 	 47.62 	 
H 	 -8.86665 	 64.5872 	 46.5065 	 
C 	 -10.5918 	 65.6711 	 45.6361 	 
H 	 -10.0285 	 65.8992 	 44.7951 	 
H 	 -11.0508 	 64.8434 	 45.2045 	 
C 	 -11.6559 	 66.7079 	 45.8884 	 
H 	 -11.366 	 67.5977 	 46.3989 	 
H 	 -12.012 	 67.1472 	 44.9785 	 
H 	 -12.523 	 66.3467 	 46.5163 	 
S 	 -6.62543 	 67.8028 	 51.505 	 
C 	 -7.18292 	 67.9097 	 53.2015 	 
C 	 -8.52682 	 68.1356 	 53.3134 	 
C 	 -9.19446 	 68.1107 	 52.0449 	 
C 	 -8.31505 	 67.9858 	 50.9632 	 
H 	 -8.9012 	 68.3066 	 54.2739 	 
C 	 -10.6967 	 68.2388 	 51.8495 	 
H 	 -11.1377 	 67.3207 	 52.0553 	 
H 	 -10.9145 	 68.5041 	 50.8221 	 
C 	 -11.4467 	 69.2841 	 52.7273 	 
H 	 -10.958 	 70.3049 	 52.5396 	 
H 	 -11.3059 	 69.0872 	 53.7681 	 
C 	 -13.0158 	 69.377 	 52.3683 	 
H 	 -13.3422 	 68.3286 	 52.3958 	 
H 	 -13.1078 	 69.7599 	 51.3793 	 
H 	 -13.6038 	 69.8571 	 53.1431 	 
H 	 -8.62504 	 67.8512 	 46.0107 	 
H 	 -6.54293 	 67.9581 	 54.0516 	 
