34

S 	 6.80047 	 25.2604 	 69.8364 	 
C 	 6.45601 	 25.1331 	 68.1159 	 
C 	 6.70535 	 26.2364 	 67.3951 	 
C 	 7.03812 	 27.3156 	 68.1804 	 
C 	 7.24122 	 27.0338 	 69.4973 	 
H 	 7.42265 	 28.3181 	 67.7922 	 
C 	 6.70393 	 26.3542 	 65.8781 	 
H 	 7.12292 	 25.4124 	 65.4947 	 
H 	 7.53014 	 27.0461 	 65.7068 	 
C 	 5.36412 	 26.843 	 65.2164 	 
H 	 4.71313 	 26.0071 	 64.8478 	 
H 	 4.72731 	 27.2618 	 65.9744 	 
C 	 5.45108 	 27.9432 	 64.2588 	 
H 	 5.73915 	 28.8751 	 64.7616 	 
H 	 6.15744 	 27.7812 	 63.4616 	 
H 	 4.54354 	 28.2122 	 63.7577 	 
S 	 9.26763 	 27.4229 	 71.4149 	 
C 	 9.52699 	 28.9969 	 71.941 	 
C 	 8.43524 	 29.8045 	 71.6983 	 
C 	 7.46497 	 29.141 	 70.9006 	 
C 	 7.93692 	 27.9225 	 70.4203 	 
H 	 8.40122 	 30.7562 	 72.1209 	 
C 	 6.06477 	 29.767 	 70.7272 	 
H 	 5.31403 	 29.0155 	 70.3486 	 
H 	 6.25073 	 30.4696 	 69.9188 	 
C 	 5.45947 	 30.3037 	 72.0199 	 
H 	 5.83761 	 31.2905 	 72.2693 	 
H 	 5.78235 	 29.6149 	 72.7902 	 
C 	 3.93906 	 30.2661 	 71.8657 	 
H 	 3.64419 	 29.2166 	 71.729 	 
H 	 3.66925 	 30.9521 	 71.044 	 
H 	 3.37659 	 30.5303 	 72.7724 	 
H 	 6.26822 	 24.2059 	 67.5479 	 
H 	 10.3576 	 29.3474 	 72.5668 	 
