34

S 	 47.0351 	 18.1796 	 83.9674 	 
C 	 46.7136 	 19.8424 	 84.4197 	 
C 	 47.5374 	 20.7128 	 83.7811 	 
C 	 48.4933 	 20.0768 	 82.9669 	 
C 	 48.4122 	 18.7138 	 82.9893 	 
H 	 49.2657 	 20.6619 	 82.4548 	 
C 	 47.5487 	 22.1956 	 84.0366 	 
H 	 48.1388 	 22.6693 	 84.8511 	 
H 	 46.5516 	 22.3908 	 84.415 	 
C 	 47.9491 	 23.1418 	 82.8589 	 
H 	 47.3285 	 22.8792 	 81.945 	 
H 	 47.6666 	 24.2014 	 83.0774 	 
C 	 49.4447 	 23.2195 	 82.6243 	 
H 	 50.0124 	 23.163 	 83.5492 	 
H 	 49.8444 	 22.495 	 81.8994 	 
H 	 49.6657 	 24.2017 	 82.2512 	 
S 	 48.8358 	 16.4491 	 81.4033 	 
C 	 50.2747 	 16.3058 	 80.519 	 
C 	 51.1996 	 17.2332 	 80.9542 	 
C 	 50.7569 	 18.1268 	 82.0019 	 
C 	 49.371 	 17.8796 	 82.2807 	 
H 	 52.2294 	 17.2222 	 80.5438 	 
C 	 51.6764 	 19.2067 	 82.4795 	 
H 	 51.283 	 19.6123 	 83.4488 	 
H 	 51.5541 	 20.1064 	 81.8722 	 
C 	 53.1554 	 18.9501 	 82.6727 	 
H 	 53.5779 	 19.8388 	 83.0979 	 
H 	 53.6709 	 18.788 	 81.763 	 
C 	 53.3625 	 17.8337 	 83.7166 	 
H 	 54.4062 	 17.7675 	 83.8198 	 
H 	 52.9976 	 16.8804 	 83.3791 	 
H 	 52.9575 	 18.221 	 84.6213 	 
H 	 45.9231 	 20.1246 	 85.102 	 
H 	 50.5386 	 15.8044 	 79.5719 	 
