34

S 	 39.7459 	 25.4951 	 95.6514 	 
C 	 39.1132 	 26.6378 	 94.5214 	 
C 	 38.7516 	 26.0439 	 93.3476 	 
C 	 39.0271 	 24.6266 	 93.3685 	 
C 	 39.6634 	 24.2223 	 94.5383 	 
H 	 38.7414 	 23.9329 	 92.5618 	 
C 	 38.1343 	 26.8111 	 92.2454 	 
H 	 37.1444 	 27.2356 	 92.6458 	 
H 	 37.7584 	 26.1443 	 91.4206 	 
C 	 39.0172 	 27.8095 	 91.5133 	 
H 	 39.943 	 27.2334 	 91.339 	 
H 	 38.4959 	 28.0589 	 90.5905 	 
C 	 39.1166 	 29.1309 	 92.244 	 
H 	 39.3807 	 29.8867 	 91.568 	 
H 	 38.1688 	 29.4581 	 92.7396 	 
H 	 39.8307 	 29.1246 	 93.0049 	 
S 	 39.1599 	 21.9854 	 96.0412 	 
C 	 40.0487 	 20.5412 	 95.8914 	 
C 	 40.8461 	 20.5898 	 94.7544 	 
C 	 40.8884 	 21.8426 	 94.0899 	 
C 	 40.1191 	 22.7914 	 94.7744 	 
H 	 41.386 	 19.7302 	 94.4454 	 
C 	 41.6463 	 22.0422 	 92.7795 	 
H 	 41.4438 	 23.1093 	 92.56 	 
H 	 41.2478 	 21.3525 	 92.024 	 
C 	 43.158 	 21.7284 	 92.754 	 
H 	 43.4621 	 21.9074 	 91.8083 	 
H 	 43.4306 	 20.6995 	 92.8576 	 
C 	 43.9209 	 22.552 	 93.8312 	 
H 	 43.8919 	 22.1275 	 94.7972 	 
H 	 43.4257 	 23.5813 	 94.0252 	 
H 	 45.0407 	 22.7156 	 93.615 	 
H 	 38.8667 	 27.6755 	 94.7902 	 
H 	 39.9355 	 19.6682 	 96.588 	 
