34

S 	 -0.00986244 	 27.8661 	 42.4021 	 
C 	 -0.594092 	 26.472 	 41.521 	 
C 	 -0.7473 	 26.7758 	 40.1709 	 
C 	 -0.25989 	 28.1145 	 39.947 	 
C 	 0.104941 	 28.8802 	 41.056 	 
H 	 -0.144572 	 28.4859 	 38.9817 	 
C 	 -1.26682 	 25.7648 	 39.1261 	 
H 	 -2.12057 	 26.3196 	 38.6993 	 
H 	 -1.66265 	 24.9479 	 39.6606 	 
C 	 -0.239257 	 25.46 	 37.9847 	 
H 	 -0.196034 	 26.4419 	 37.5072 	 
H 	 0.738538 	 25.2112 	 38.2972 	 
C 	 -0.938047 	 24.3913 	 37.0911 	 
H 	 -1.96712 	 24.7706 	 36.7105 	 
H 	 -0.379252 	 24.2982 	 36.1949 	 
H 	 -1.12108 	 23.3916 	 37.5196 	 
S 	 1.3315 	 30.7084 	 42.7009 	 
C 	 1.39871 	 32.3514 	 42.1851 	 
C 	 0.96146 	 32.5552 	 40.9112 	 
C 	 0.490254 	 31.3223 	 40.3377 	 
C 	 0.573737 	 30.2492 	 41.1819 	 
H 	 1.07296 	 33.4732 	 40.4254 	 
C 	 0.147135 	 31.2066 	 38.87 	 
H 	 0.622854 	 30.418 	 38.4027 	 
H 	 0.524492 	 32.1905 	 38.3408 	 
C 	 -1.37253 	 31.0959 	 38.5958 	 
H 	 -1.86991 	 31.9381 	 39.0129 	 
H 	 -1.85645 	 30.3218 	 39.2189 	 
C 	 -1.68454 	 30.9463 	 37.117 	 
H 	 -2.74074 	 30.9554 	 36.9189 	 
H 	 -1.30189 	 29.9624 	 36.7791 	 
H 	 -1.37655 	 31.7452 	 36.5093 	 
H 	 -0.970047 	 25.6309 	 41.9997 	 
H 	 1.72668 	 33.2064 	 42.7505 	 
