34

S 	 43.9756 	 11.1146 	 50.9872 	 
C 	 43.4694 	 12.0406 	 49.5871 	 
C 	 43.096 	 13.3358 	 49.9042 	 
C 	 43.2424 	 13.5971 	 51.3005 	 
C 	 43.6781 	 12.5087 	 52.0289 	 
H 	 43.0479 	 14.5158 	 51.7716 	 
C 	 42.7541 	 14.4506 	 48.8808 	 
H 	 42.6662 	 13.9516 	 47.8981 	 
H 	 43.5355 	 15.2358 	 48.7463 	 
C 	 41.4896 	 15.1348 	 49.3311 	 
H 	 40.8492 	 14.3363 	 49.7012 	 
H 	 41.6984 	 15.7089 	 50.2124 	 
C 	 40.7182 	 15.9707 	 48.3326 	 
H 	 41.3087 	 16.8497 	 48.0053 	 
H 	 40.6207 	 15.3248 	 47.4626 	 
H 	 39.6707 	 16.1121 	 48.5769 	 
S 	 45.5007 	 12.0657 	 53.9054 	 
C 	 45.0719 	 12.3274 	 55.6185 	 
C 	 43.7659 	 12.7477 	 55.7137 	 
C 	 43.0236 	 12.8071 	 54.496 	 
C 	 43.8827 	 12.5247 	 53.4271 	 
H 	 43.3788 	 12.9121 	 56.6877 	 
C 	 41.5739 	 13.223 	 54.2609 	 
H 	 40.922 	 12.4416 	 54.8006 	 
H 	 41.3689 	 13.022 	 53.1827 	 
C 	 41.3177 	 14.7148 	 54.5212 	 
H 	 41.9155 	 15.2455 	 53.7688 	 
H 	 41.6239 	 15.0111 	 55.4997 	 
C 	 39.7982 	 15.0309 	 54.3739 	 
H 	 39.7104 	 16.1304 	 54.1385 	 
H 	 39.1843 	 14.8543 	 55.2808 	 
H 	 39.2803 	 14.5851 	 53.5704 	 
H 	 43.5224 	 11.713 	 48.4872 	 
H 	 45.7471 	 12.2379 	 56.4381 	 
