34

S 	 2.13222 	 -11.1528 	 54.6003 	 
C 	 0.832663 	 -11.2624 	 53.3543 	 
C 	 0.572927 	 -12.5514 	 52.9969 	 
C 	 1.38365 	 -13.4988 	 53.7259 	 
C 	 2.22059 	 -12.9086 	 54.6644 	 
H 	 1.40436 	 -14.6146 	 53.5642 	 
C 	 -0.267936 	 -12.988 	 51.8382 	 
H 	 0.441057 	 -13.5122 	 51.1482 	 
H 	 -0.654857 	 -12.1766 	 51.2367 	 
C 	 -1.43476 	 -14.0477 	 52.1574 	 
H 	 -1.61456 	 -14.7039 	 51.3141 	 
H 	 -1.05234 	 -14.6472 	 53.0306 	 
C 	 -2.70285 	 -13.3289 	 52.5695 	 
H 	 -3.55185 	 -13.9873 	 52.481 	 
H 	 -2.67161 	 -13.0013 	 53.5771 	 
H 	 -2.85876 	 -12.4691 	 51.9113 	 
S 	 4.65418 	 -13.3361 	 55.3171 	 
C 	 5.14186 	 -14.6726 	 56.2745 	 
C 	 4.00955 	 -15.4099 	 56.6656 	 
C 	 2.78154 	 -14.8066 	 56.2979 	 
C 	 3.01891 	 -13.6518 	 55.5679 	 
H 	 4.16129 	 -16.3356 	 57.2298 	 
C 	 1.50233 	 -15.5206 	 56.4939 	 
H 	 1.64344 	 -16.3533 	 57.1248 	 
H 	 1.1809 	 -15.9754 	 55.5715 	 
C 	 0.39398 	 -14.6791 	 57.1194 	 
H 	 0.22402 	 -13.7971 	 56.5168 	 
H 	 0.716892 	 -14.4812 	 58.1303 	 
C 	 -0.888458 	 -15.4207 	 57.2295 	 
H 	 -1.74548 	 -14.8922 	 57.5735 	 
H 	 -0.832084 	 -16.2669 	 57.9689 	 
H 	 -1.21801 	 -15.7466 	 56.2598 	 
H 	 0.340464 	 -10.4143 	 52.9469 	 
H 	 6.11523 	 -14.9019 	 56.4515 	 
