34

S 	 44.4785 	 18.7625 	 85.8047 	 
C 	 44.3826 	 20.4539 	 86.1266 	 
C 	 44.6966 	 21.093 	 84.9139 	 
C 	 45.353 	 20.225 	 84.002 	 
C 	 45.6234 	 18.9976 	 84.502 	 
H 	 45.832 	 20.5202 	 83.1038 	 
C 	 44.4564 	 22.5305 	 84.5532 	 
H 	 45.4065 	 23.08 	 84.5293 	 
H 	 43.8662 	 22.7509 	 85.4406 	 
C 	 43.7615 	 22.8601 	 83.2745 	 
H 	 44.3638 	 22.6522 	 82.4291 	 
H 	 42.9386 	 22.1186 	 83.1306 	 
C 	 43.2245 	 24.3088 	 83.0545 	 
H 	 42.3963 	 24.5984 	 83.76 	 
H 	 44.011 	 25.0072 	 83.2501 	 
H 	 42.8724 	 24.4336 	 82.0449 	 
S 	 46.9968 	 16.8624 	 85.4757 	 
C 	 47.6619 	 15.7006 	 84.392 	 
C 	 47.6595 	 16.1847 	 83.0777 	 
C 	 47.0151 	 17.4485 	 82.884 	 
C 	 46.5319 	 17.8879 	 84.1028 	 
H 	 48.2233 	 15.6411 	 82.2684 	 
C 	 47.2028 	 18.1231 	 81.5746 	 
H 	 48.1116 	 17.7412 	 81.036 	 
H 	 47.3695 	 19.1298 	 81.9209 	 
C 	 45.9695 	 18.1514 	 80.675 	 
H 	 45.1315 	 18.2827 	 81.4028 	 
H 	 45.8053 	 17.2601 	 80.1344 	 
C 	 46.0718 	 19.1462 	 79.4688 	 
H 	 45.0637 	 19.1862 	 79.1274 	 
H 	 46.5706 	 18.6982 	 78.5596 	 
H 	 46.3902 	 20.2158 	 79.7737 	 
H 	 44.0102 	 20.8779 	 86.9887 	 
H 	 48.3256 	 14.9121 	 84.606 	 
