34

S 	 -4.95026 	 8.88297 	 82.7961 	 
C 	 -6.54016 	 8.1495 	 82.6566 	 
C 	 -7.16823 	 8.56744 	 81.5163 	 
C 	 -6.46788 	 9.69705 	 80.9039 	 
C 	 -5.27876 	 10.0236 	 81.4957 	 
H 	 -6.81106 	 10.2038 	 79.9987 	 
C 	 -8.47306 	 8.00509 	 81.0473 	 
H 	 -9.32936 	 8.45068 	 81.5108 	 
H 	 -8.40468 	 6.92036 	 81.3336 	 
C 	 -8.50696 	 7.926 	 79.4912 	 
H 	 -9.3903 	 7.35017 	 79.1624 	 
H 	 -8.52781 	 8.98925 	 79.031 	 
C 	 -7.31132 	 7.0907 	 78.8587 	 
H 	 -7.39042 	 7.26762 	 77.7735 	 
H 	 -6.36755 	 7.57723 	 79.0425 	 
H 	 -7.30257 	 6.03192 	 79.1009 	 
S 	 -2.62651 	 10.6537 	 81.0061 	 
C 	 -2.13957 	 12.2905 	 80.8477 	 
C 	 -3.22127 	 13.1066 	 80.901 	 
C 	 -4.45522 	 12.4438 	 81.2634 	 
C 	 -4.30247 	 11.0713 	 81.1905 	 
H 	 -2.94973 	 14.126 	 80.6428 	 
C 	 -5.71344 	 13.2539 	 81.4221 	 
H 	 -6.43366 	 12.9476 	 80.649 	 
H 	 -5.45124 	 14.2646 	 81.0359 	 
C 	 -6.22603 	 13.3446 	 82.8809 	 
H 	 -5.53122 	 13.278 	 83.716 	 
H 	 -6.80832 	 12.4696 	 83.1265 	 
C 	 -7.18351 	 14.5702 	 83.173 	 
H 	 -6.64219 	 15.4335 	 82.7932 	 
H 	 -7.44431 	 14.66 	 84.2847 	 
H 	 -8.13033 	 14.332 	 82.6953 	 
H 	 -6.73204 	 7.27068 	 83.163 	 
H 	 -1.14972 	 12.6142 	 80.8148 	 
