34

S 	 13.0525 	 21.8655 	 53.4322 	 
C 	 14.3771 	 22.238 	 54.4403 	 
C 	 15.1632 	 23.2407 	 53.8943 	 
C 	 14.6708 	 23.8243 	 52.6793 	 
C 	 13.4504 	 23.2742 	 52.3195 	 
H 	 15.0319 	 24.6163 	 52.139 	 
C 	 16.3594 	 23.6746 	 54.63 	 
H 	 16.9269 	 24.4693 	 54.1532 	 
H 	 17.0496 	 22.8178 	 54.5874 	 
C 	 16.1004 	 24.1073 	 56.1211 	 
H 	 15.4293 	 24.9957 	 56.0582 	 
H 	 15.6172 	 23.3215 	 56.6678 	 
C 	 17.3866 	 24.5547 	 56.8104 	 
H 	 17.251 	 24.7955 	 57.9068 	 
H 	 18.1791 	 23.7848 	 56.5581 	 
H 	 17.7146 	 25.5004 	 56.4267 	 
S 	 12.7886 	 22.2833 	 49.7631 	 
C 	 12.3303 	 23.3931 	 48.5093 	 
C 	 12.3915 	 24.6916 	 48.968 	 
C 	 12.5492 	 24.7883 	 50.3908 	 
C 	 12.7897 	 23.5546 	 51.0239 	 
H 	 12.2696 	 25.5315 	 48.2632 	 
C 	 12.5018 	 26.1617 	 50.9431 	 
H 	 12.1316 	 26.0432 	 51.9904 	 
H 	 11.7102 	 26.6934 	 50.3051 	 
C 	 13.7608 	 27.0803 	 50.8791 	 
H 	 14.2436 	 26.9155 	 49.8177 	 
H 	 14.5092 	 26.7965 	 51.6289 	 
C 	 13.4381 	 28.5967 	 51.0221 	 
H 	 12.9635 	 29.0212 	 50.1126 	 
H 	 14.4068 	 29.111 	 51.0956 	 
H 	 12.7419 	 28.9381 	 51.8349 	 
H 	 14.6458 	 21.8018 	 55.3916 	 
H 	 12.1212 	 23.0189 	 47.5608 	 
