34

S 	 -61.0882 	 27.1642 	 94.6981 	 
C 	 -59.4844 	 27.6688 	 95.0933 	 
C 	 -58.634 	 26.6072 	 95.2004 	 
C 	 -59.1109 	 25.4099 	 94.6044 	 
C 	 -60.4529 	 25.536 	 94.2483 	 
H 	 -58.5218 	 24.5123 	 94.3899 	 
C 	 -57.2033 	 26.6427 	 95.8033 	 
H 	 -56.6895 	 27.5467 	 95.4737 	 
H 	 -56.6973 	 25.8449 	 95.1914 	 
C 	 -57.1225 	 26.5494 	 97.3619 	 
H 	 -57.4405 	 27.5562 	 97.7519 	 
H 	 -57.7521 	 25.7013 	 97.6894 	 
C 	 -55.6466 	 26.5203 	 97.7551 	 
H 	 -55.1008 	 25.6483 	 97.3142 	 
H 	 -55.1558 	 27.461 	 97.4254 	 
H 	 -55.5643 	 26.5199 	 98.8498 	 
S 	 -62.589 	 24.0761 	 94.9159 	 
C 	 -63.1115 	 22.7264 	 94.0033 	 
C 	 -62.2089 	 22.4452 	 93.0201 	 
C 	 -61.0831 	 23.3757 	 92.9972 	 
C 	 -61.2935 	 24.3952 	 93.8528 	 
H 	 -62.411 	 21.5976 	 92.4419 	 
C 	 -59.8223 	 23.1776 	 92.1759 	 
H 	 -59.1926 	 22.3889 	 92.6842 	 
H 	 -59.2716 	 24.0266 	 92.1758 	 
C 	 -60.0131 	 22.8715 	 90.6706 	 
H 	 -60.6584 	 22.0128 	 90.574 	 
H 	 -59.0929 	 22.8222 	 90.1004 	 
C 	 -60.781 	 23.9776 	 89.8955 	 
H 	 -61.7515 	 24.1455 	 90.3845 	 
H 	 -60.9241 	 23.6261 	 88.9161 	 
H 	 -60.2672 	 24.8975 	 89.9937 	 
H 	 -59.3121 	 28.7271 	 95.2673 	 
H 	 -63.9395 	 21.977 	 94.2387 	 
