34

S 	 -42.8471 	 20.2849 	 77.0068 	 
C 	 -44.1809 	 20.6746 	 78.1268 	 
C 	 -43.9545 	 21.7756 	 78.9156 	 
C 	 -42.6748 	 22.3302 	 78.621 	 
C 	 -41.8799 	 21.5437 	 77.7483 	 
H 	 -42.2914 	 23.2201 	 79.0161 	 
C 	 -45.035 	 22.4723 	 79.8158 	 
H 	 -44.9028 	 21.9392 	 80.7618 	 
H 	 -46.1111 	 22.3056 	 79.5895 	 
C 	 -44.9612 	 23.9184 	 80.2051 	 
H 	 -45.6112 	 24.1801 	 80.9895 	 
H 	 -43.9336 	 23.9065 	 80.713 	 
C 	 -44.9844 	 24.9049 	 79.0528 	 
H 	 -45.8862 	 24.5968 	 78.5578 	 
H 	 -45.2696 	 25.8677 	 79.4575 	 
H 	 -44.1045 	 24.8816 	 78.3878 	 
S 	 -39.5561 	 20.1338 	 77.366 	 
C 	 -38.0708 	 20.949 	 76.9926 	 
C 	 -38.2361 	 22.2827 	 76.7908 	 
C 	 -39.5816 	 22.6462 	 77.0616 	 
C 	 -40.4018 	 21.624 	 77.5323 	 
H 	 -37.4365 	 22.9949 	 76.5742 	 
C 	 -40.0405 	 24.0555 	 76.9663 	 
H 	 -39.4632 	 24.5962 	 77.7382 	 
H 	 -41.0765 	 24.2522 	 77.3316 	 
C 	 -39.9021 	 24.7978 	 75.6163 	 
H 	 -40.387 	 24.0582 	 74.9442 	 
H 	 -38.8655 	 24.884 	 75.4069 	 
C 	 -40.5804 	 26.143 	 75.4053 	 
H 	 -41.6606 	 25.9319 	 75.52 	 
H 	 -40.2981 	 26.4483 	 74.3491 	 
H 	 -40.3435 	 26.8959 	 76.1093 	 
H 	 -45.1084 	 20.1745 	 77.9668 	 
H 	 -37.1116 	 20.5335 	 77.0049 	 
