34

S 	 1.23688 	 -15.3961 	 81.5131 	 
C 	 0.760479 	 -16.7344 	 82.5207 	 
C 	 -0.626204 	 -16.8942 	 82.3765 	 
C 	 -1.23917 	 -15.8587 	 81.6107 	 
C 	 -0.362669 	 -14.9 	 81.1698 	 
H 	 -2.28702 	 -15.7079 	 81.5572 	 
C 	 -1.43982 	 -18.014 	 82.9528 	 
H 	 -2.45318 	 -17.7048 	 83.0031 	 
H 	 -1.16665 	 -18.1307 	 84.0391 	 
C 	 -1.12509 	 -19.4115 	 82.2319 	 
H 	 -0.0394171 	 -19.6023 	 82.0572 	 
H 	 -1.6266 	 -20.2109 	 82.715 	 
C 	 -1.73437 	 -19.323 	 80.8152 	 
H 	 -1.98952 	 -20.3025 	 80.4886 	 
H 	 -2.61313 	 -18.6726 	 80.622 	 
H 	 -0.898996 	 -18.9253 	 80.173 	 
S 	 0.427672 	 -13.5799 	 78.8772 	 
C 	 -0.548374 	 -12.2613 	 78.2929 	 
C 	 -1.75643 	 -12.0972 	 78.9428 	 
C 	 -1.7598 	 -12.9809 	 80.1168 	 
C 	 -0.618958 	 -13.762 	 80.257 	 
H 	 -2.4776 	 -11.3088 	 78.6511 	 
C 	 -3.07373 	 -13.131 	 80.9528 	 
H 	 -3.27471 	 -12.0827 	 81.2448 	 
H 	 -2.68672 	 -13.5523 	 81.8417 	 
C 	 -4.19363 	 -13.9178 	 80.1696 	 
H 	 -3.91802 	 -14.9461 	 80.0656 	 
H 	 -4.35513 	 -13.4277 	 79.2253 	 
C 	 -5.57213 	 -13.7071 	 80.9316 	 
H 	 -5.86934 	 -12.6483 	 80.9309 	 
H 	 -5.43769 	 -13.8456 	 81.9862 	 
H 	 -6.39771 	 -14.3105 	 80.5887 	 
H 	 1.39175 	 -17.5006 	 82.9448 	 
H 	 -0.521969 	 -11.7869 	 77.3614 	 
