34

S 	 -73.9823 	 51.7092 	 138.73 	 
C 	 -73.3691 	 53.1983 	 139.383 	 
C 	 -73.2815 	 54.2078 	 138.453 	 
C 	 -73.6338 	 53.7541 	 137.18 	 
C 	 -73.9698 	 52.4003 	 137.101 	 
H 	 -73.4798 	 54.2739 	 136.255 	 
C 	 -72.7093 	 55.5852 	 138.661 	 
H 	 -72.476 	 56.0258 	 137.728 	 
H 	 -71.7183 	 55.3468 	 139.11 	 
C 	 -73.5585 	 56.5184 	 139.515 	 
H 	 -74.4853 	 56.6341 	 138.957 	 
H 	 -73.8489 	 56.003 	 140.418 	 
C 	 -72.8045 	 57.8651 	 139.775 	 
H 	 -72.7169 	 58.4453 	 138.807 	 
H 	 -73.4012 	 58.5758 	 140.361 	 
H 	 -71.8784 	 57.6511 	 140.305 	 
S 	 -72.9049 	 50.4944 	 135.366 	 
C 	 -73.9679 	 49.8431 	 134.124 	 
C 	 -75.2255 	 50.4119 	 134.114 	 
C 	 -75.3776 	 51.255 	 135.216 	 
C 	 -74.1977 	 51.4896 	 135.968 	 
H 	 -75.9874 	 49.9283 	 133.483 	 
C 	 -76.7357 	 51.7989 	 135.605 	 
H 	 -76.9913 	 52.7406 	 135.094 	 
H 	 -76.7649 	 52.1421 	 136.618 	 
C 	 -77.898 	 50.8035 	 135.277 	 
H 	 -77.6563 	 49.8903 	 135.852 	 
H 	 -78.0056 	 50.5777 	 134.222 	 
C 	 -79.2703 	 51.3784 	 135.711 	 
H 	 -79.4949 	 52.2332 	 135.041 	 
H 	 -79.1063 	 51.8099 	 136.702 	 
H 	 -80.1663 	 50.766 	 135.676 	 
H 	 -72.8698 	 53.1907 	 140.391 	 
H 	 -73.7531 	 49.0086 	 133.466 	 
