34

S 	 -3.1451 	 -19.9074 	 84.4507 	 
C 	 -1.4907 	 -19.2209 	 84.3567 	 
C 	 -0.74696 	 -19.5019 	 85.5145 	 
C 	 -1.53211 	 -20.1417 	 86.5035 	 
C 	 -2.90144 	 -20.3273 	 86.1325 	 
H 	 -1.1528 	 -20.4817 	 87.5177 	 
C 	 0.612672 	 -18.9145 	 85.8091 	 
H 	 0.459769 	 -18.0849 	 86.5696 	 
H 	 0.94474 	 -18.5308 	 84.8683 	 
C 	 1.65342 	 -19.9007 	 86.2672 	 
H 	 2.29827 	 -19.302 	 86.9255 	 
H 	 1.17951 	 -20.6982 	 86.9287 	 
C 	 2.33665 	 -20.675 	 85.2103 	 
H 	 1.8263 	 -21.5314 	 84.9712 	 
H 	 2.56012 	 -20.0264 	 84.3342 	 
H 	 3.27001 	 -20.905 	 85.6769 	 
S 	 -4.2173 	 -22.5522 	 86.9554 	 
C 	 -5.44032 	 -22.3378 	 88.1872 	 
C 	 -5.56363 	 -21.0585 	 88.6161 	 
C 	 -4.79974 	 -20.1808 	 87.8567 	 
C 	 -3.99154 	 -20.8348 	 86.9194 	 
H 	 -6.341 	 -20.7133 	 89.3102 	 
C 	 -4.8774 	 -18.7233 	 88.0984 	 
H 	 -5.91487 	 -18.4678 	 88.2905 	 
H 	 -4.6299 	 -18.3924 	 87.0857 	 
C 	 -4.00209 	 -18.1427 	 89.2098 	 
H 	 -2.9972 	 -18.3648 	 88.9085 	 
H 	 -4.19648 	 -18.599 	 90.1607 	 
C 	 -4.25814 	 -16.5912 	 89.2767 	 
H 	 -4.15168 	 -16.2212 	 88.2491 	 
H 	 -3.55079 	 -16.0669 	 89.9265 	 
H 	 -5.25684 	 -16.4954 	 89.7161 	 
H 	 -1.18603 	 -18.5732 	 83.5327 	 
H 	 -6.12142 	 -23.127 	 88.5784 	 
