34

S 	 -40.4037 	 48.3505 	 104.452 	 
C 	 -38.7426 	 48.1098 	 104.673 	 
C 	 -37.9206 	 48.8884 	 103.889 	 
C 	 -38.7326 	 49.9359 	 103.267 	 
C 	 -40.1174 	 49.8308 	 103.549 	 
H 	 -38.3252 	 50.6296 	 102.629 	 
C 	 -36.4314 	 48.649 	 103.525 	 
H 	 -35.7174 	 48.5115 	 104.33 	 
H 	 -36.1299 	 49.6144 	 103.067 	 
C 	 -36.1989 	 47.4862 	 102.642 	 
H 	 -35.1254 	 47.3853 	 102.404 	 
H 	 -36.5359 	 46.5308 	 103.11 	 
C 	 -36.922 	 47.529 	 101.291 	 
H 	 -36.6509 	 46.7939 	 100.555 	 
H 	 -37.9685 	 47.549 	 101.478 	 
H 	 -36.7621 	 48.4425 	 100.693 	 
S 	 -41.188 	 52.4341 	 103.811 	 
C 	 -42.4741 	 52.9119 	 102.729 	 
C 	 -42.8548 	 51.8923 	 101.874 	 
C 	 -41.9426 	 50.7973 	 101.99 	 
C 	 -41.0492 	 50.8541 	 103.066 	 
H 	 -43.6705 	 51.9641 	 101.157 	 
C 	 -41.9354 	 49.6517 	 100.912 	 
H 	 -41.2054 	 48.9108 	 101.247 	 
H 	 -41.3437 	 50.1114 	 100.11 	 
C 	 -43.2669 	 49.0084 	 100.486 	 
H 	 -43.761 	 49.9056 	 100.065 	 
H 	 -43.7957 	 48.5259 	 101.314 	 
C 	 -42.9793 	 47.7943 	 99.5068 	 
H 	 -42.425 	 48.0154 	 98.6073 	 
H 	 -43.8755 	 47.2239 	 99.2372 	 
H 	 -42.2868 	 47.1197 	 100.002 	 
H 	 -38.2776 	 47.2657 	 105.185 	 
H 	 -43.0714 	 53.7867 	 102.838 	 
