34

S 	 -61.7818 	 52.9444 	 125.132 	 
C 	 -62.6026 	 52.0312 	 126.368 	 
C 	 -63.9975 	 52.1927 	 126.371 	 
C 	 -64.3988 	 53.1066 	 125.316 	 
C 	 -63.3464 	 53.6238 	 124.585 	 
H 	 -65.3709 	 53.3249 	 124.969 	 
C 	 -64.9443 	 51.5555 	 127.367 	 
H 	 -65.8518 	 52.1531 	 127.541 	 
H 	 -64.4012 	 51.6059 	 128.328 	 
C 	 -65.309 	 50.0403 	 127.224 	 
H 	 -64.39 	 49.4787 	 127.415 	 
H 	 -65.9774 	 49.74 	 128.027 	 
C 	 -66.0935 	 49.5863 	 125.948 	 
H 	 -66.7727 	 50.4175 	 125.675 	 
H 	 -65.3133 	 49.4677 	 125.117 	 
H 	 -66.6521 	 48.6639 	 126.18 	 
S 	 -62.5753 	 56.1802 	 123.674 	 
C 	 -63.2545 	 56.756 	 122.127 	 
C 	 -64.0526 	 55.7862 	 121.611 	 
C 	 -64.1967 	 54.6107 	 122.343 	 
C 	 -63.4652 	 54.6437 	 123.522 	 
H 	 -64.553 	 56.1195 	 120.689 	 
C 	 -65.2367 	 53.5175 	 122.024 	 
H 	 -65.9536 	 53.9258 	 121.31 	 
H 	 -65.7098 	 53.4153 	 122.959 	 
C 	 -64.7289 	 52.1786 	 121.469 	 
H 	 -63.8715 	 51.8255 	 122.058 	 
H 	 -64.2795 	 52.3018 	 120.422 	 
C 	 -65.8349 	 51.0942 	 121.473 	 
H 	 -65.4405 	 50.1163 	 121.047 	 
H 	 -66.6969 	 51.4786 	 120.908 	 
H 	 -66.1158 	 50.8913 	 122.46 	 
H 	 -62.2829 	 51.3572 	 127.06 	 
H 	 -63.1474 	 57.7642 	 121.675 	 
