34

S 	 9.3634 	 24.0116 	 36.9149 	 
C 	 7.77538 	 24.5853 	 36.394 	 
C 	 6.76799 	 23.9056 	 37.0072 	 
C 	 7.16978 	 22.9057 	 37.9355 	 
C 	 8.58708 	 22.7405 	 37.9192 	 
H 	 6.62391 	 22.2945 	 38.5673 	 
C 	 5.35858 	 24.3502 	 36.8779 	 
H 	 5.28423 	 25.2081 	 36.2105 	 
H 	 4.96659 	 24.7136 	 37.8632 	 
C 	 4.42165 	 23.2017 	 36.3548 	 
H 	 4.80643 	 22.7206 	 35.4894 	 
H 	 4.29636 	 22.363 	 37.0662 	 
C 	 3.06058 	 23.7068 	 36.067 	 
H 	 2.60703 	 23.9593 	 37.0414 	 
H 	 3.03419 	 24.6925 	 35.5579 	 
H 	 2.40195 	 22.8984 	 35.7715 	 
S 	 10.4365 	 22.729 	 39.8747 	 
C 	 10.7843 	 21.3496 	 40.7898 	 
C 	 10.002 	 20.2948 	 40.4833 	 
C 	 9.27585 	 20.59 	 39.2756 	 
C 	 9.33482 	 21.9415 	 38.9031 	 
H 	 10.1478 	 19.3356 	 41.01 	 
C 	 8.35568 	 19.6058 	 38.602 	 
H 	 8.3384 	 19.8663 	 37.5014 	 
H 	 7.3573 	 19.8251 	 38.955 	 
C 	 8.75737 	 18.1311 	 38.7648 	 
H 	 8.60307 	 17.8118 	 39.786 	 
H 	 9.82978 	 17.9981 	 38.5596 	 
C 	 7.96654 	 17.1595 	 37.8529 	 
H 	 7.78394 	 17.4012 	 36.8246 	 
H 	 6.98626 	 17.2021 	 38.3338 	 
H 	 8.34449 	 16.1159 	 37.8974 	 
H 	 7.62963 	 25.5474 	 35.817 	 
H 	 11.3552 	 21.4077 	 41.7424 	 
