34

S 	 -5.32142 	 10.7151 	 81.9633 	 
C 	 -4.56235 	 9.24678 	 82.5183 	 
C 	 -3.67999 	 8.71275 	 81.5694 	 
C 	 -3.52491 	 9.56607 	 80.4746 	 
C 	 -4.27796 	 10.7215 	 80.5723 	 
H 	 -2.98639 	 9.27253 	 79.5769 	 
C 	 -2.76996 	 7.5205 	 81.7342 	 
H 	 -2.44034 	 7.66739 	 82.7614 	 
H 	 -1.89849 	 7.66545 	 81.1148 	 
C 	 -3.33185 	 6.14262 	 81.4311 	 
H 	 -2.61319 	 5.30169 	 81.5594 	 
H 	 -4.08906 	 5.89461 	 82.1608 	 
C 	 -3.55456 	 5.85877 	 79.9882 	 
H 	 -2.61736 	 6.03241 	 79.4485 	 
H 	 -3.83442 	 4.82858 	 79.9751 	 
H 	 -4.43817 	 6.4034 	 79.5732 	 
S 	 -6.14507 	 11.9778 	 79.1431 	 
C 	 -5.76343 	 13.2327 	 78.0404 	 
C 	 -4.40283 	 13.1182 	 77.7019 	 
C 	 -3.67819 	 12.3074 	 78.6174 	 
C 	 -4.52101 	 11.6439 	 79.4931 	 
H 	 -4.01763 	 13.5543 	 76.8415 	 
C 	 -2.12866 	 12.0444 	 78.5258 	 
H 	 -2.00186 	 11.1755 	 77.8877 	 
H 	 -1.76475 	 11.6376 	 79.552 	 
C 	 -1.12451 	 13.1038 	 78.002 	 
H 	 -1.47135 	 14.1004 	 78.2514 	 
H 	 -1.27257 	 13.3213 	 76.8519 	 
C 	 0.33603 	 12.7995 	 78.3225 	 
H 	 0.938048 	 13.7401 	 78.1365 	 
H 	 0.712441 	 11.879 	 77.8552 	 
H 	 0.237372 	 12.595 	 79.4227 	 
H 	 -4.75619 	 8.8733 	 83.5527 	 
H 	 -6.53367 	 13.7587 	 77.4292 	 
