34

S 	 6.79999 	 -6.51606 	 85.2181 	 
C 	 6.85337 	 -4.76057 	 85.2505 	 
C 	 6.18821 	 -4.1543 	 86.3062 	 
C 	 5.22891 	 -5.06485 	 86.8658 	 
C 	 5.44908 	 -6.33166 	 86.3826 	 
H 	 4.4315 	 -4.86521 	 87.563 	 
C 	 6.2229 	 -2.66117 	 86.5939 	 
H 	 5.23918 	 -2.20204 	 86.6284 	 
H 	 6.63575 	 -2.25388 	 85.668 	 
C 	 6.86204 	 -2.20987 	 87.9018 	 
H 	 6.54644 	 -1.18786 	 88.1771 	 
H 	 6.4017 	 -2.70681 	 88.762 	 
C 	 8.38115 	 -2.35033 	 88.0708 	 
H 	 8.80111 	 -1.94339 	 89.0273 	 
H 	 8.45515 	 -3.4346 	 88.0198 	 
H 	 8.94884 	 -1.99385 	 87.2185 	 
S 	 3.38483 	 -8.04434 	 85.6539 	 
C 	 2.86417 	 -9.29837 	 86.7284 	 
C 	 3.52416 	 -9.21525 	 87.9426 	 
C 	 4.51554 	 -8.18446 	 87.9364 	 
C 	 4.62196 	 -7.50069 	 86.7567 	 
H 	 3.2713 	 -9.98086 	 88.6576 	 
C 	 5.31516 	 -7.97414 	 89.1932 	 
H 	 6.33095 	 -7.56435 	 88.8538 	 
H 	 5.41279 	 -8.89287 	 89.7725 	 
C 	 4.76514 	 -6.84006 	 90.1267 	 
H 	 3.71522 	 -6.95139 	 90.3938 	 
H 	 4.91518 	 -5.99206 	 89.4759 	 
C 	 5.60392 	 -6.85206 	 91.4228 	 
H 	 6.59156 	 -7.09133 	 91.1098 	 
H 	 5.26116 	 -7.54321 	 92.1419 	 
H 	 5.55203 	 -5.82354 	 91.898 	 
H 	 7.63385 	 -4.27949 	 84.7255 	 
H 	 1.90191 	 -9.84439 	 86.5986 	 
