34

S 	 -34.8532 	 31.3723 	 47.3572 	 
C 	 -33.9168 	 30.1892 	 48.2748 	 
C 	 -33.3406 	 30.7272 	 49.438 	 
C 	 -33.9334 	 32.0289 	 49.6643 	 
C 	 -34.868 	 32.4626 	 48.7472 	 
H 	 -33.8026 	 32.6275 	 50.5919 	 
C 	 -32.319 	 30.0084 	 50.3377 	 
H 	 -32.283 	 28.9547 	 50.0865 	 
H 	 -32.6468 	 30.0472 	 51.4075 	 
C 	 -30.9067 	 30.4545 	 50.0335 	 
H 	 -30.8835 	 31.5651 	 50.3114 	 
H 	 -30.2781 	 29.9922 	 50.7249 	 
C 	 -30.3699 	 30.3322 	 48.5291 	 
H 	 -29.3718 	 30.6644 	 48.5849 	 
H 	 -30.3741 	 29.378 	 48.1478 	 
H 	 -30.8987 	 31.055 	 47.9008 	 
S 	 -36.62 	 34.0148 	 50.278 	 
C 	 -36.9948 	 35.5855 	 49.6285 	 
C 	 -36.4649 	 35.811 	 48.3802 	 
C 	 -35.6624 	 34.7153 	 47.825 	 
C 	 -35.6631 	 33.6536 	 48.7794 	 
H 	 -36.6625 	 36.6747 	 47.8589 	 
C 	 -34.7803 	 34.7805 	 46.6676 	 
H 	 -34.2591 	 33.8247 	 46.5437 	 
H 	 -33.9847 	 35.3967 	 46.9402 	 
C 	 -35.363 	 35.3588 	 45.3191 	 
H 	 -36.0072 	 36.2463 	 45.3413 	 
H 	 -36.0081 	 34.5736 	 45.0219 	 
C 	 -34.3721 	 35.3097 	 44.0969 	 
H 	 -33.5952 	 36.0143 	 44.1689 	 
H 	 -35.0203 	 35.364 	 43.2173 	 
H 	 -33.8605 	 34.3629 	 44.0599 	 
H 	 -33.7163 	 29.2226 	 47.9511 	 
H 	 -37.7089 	 36.3194 	 50.1131 	 
