34

S 	 -113.228 	 53.9721 	 116.206 	 
C 	 -112.222 	 52.5292 	 116.134 	 
C 	 -110.903 	 52.859 	 115.87 	 
C 	 -110.693 	 54.308 	 115.739 	 
C 	 -111.836 	 55.0352 	 115.947 	 
H 	 -109.766 	 54.7799 	 115.508 	 
C 	 -109.813 	 51.8257 	 115.71 	 
H 	 -109.396 	 52.1213 	 114.744 	 
H 	 -110.089 	 50.7695 	 115.463 	 
C 	 -108.676 	 51.8242 	 116.775 	 
H 	 -107.637 	 51.9478 	 116.38 	 
H 	 -108.921 	 52.7874 	 117.282 	 
C 	 -108.861 	 50.7604 	 117.857 	 
H 	 -109.905 	 50.7685 	 118.235 	 
H 	 -108.547 	 49.7582 	 117.52 	 
H 	 -108.203 	 50.9683 	 118.746 	 
S 	 -112.131 	 57.4311 	 114.561 	 
C 	 -112.206 	 58.9078 	 115.509 	 
C 	 -111.963 	 58.6896 	 116.853 	 
C 	 -111.775 	 57.3298 	 117.158 	 
C 	 -111.955 	 56.5091 	 116.058 	 
H 	 -111.859 	 59.6292 	 117.456 	 
C 	 -111.605 	 56.9036 	 118.594 	 
H 	 -112.4 	 56.2485 	 118.883 	 
H 	 -111.676 	 57.7477 	 119.205 	 
C 	 -110.245 	 56.245 	 118.935 	 
H 	 -110.115 	 55.266 	 118.357 	 
H 	 -110.371 	 55.9611 	 119.926 	 
C 	 -109.063 	 57.2308 	 118.822 	 
H 	 -108.87 	 57.4824 	 117.782 	 
H 	 -108.113 	 56.7308 	 119.118 	 
H 	 -109.239 	 58.0919 	 119.449 	 
H 	 -112.593 	 51.543 	 116.39 	 
H 	 -112.297 	 59.881 	 115.005 	 
