34

S 	 -5.88535 	 60.2023 	 49.5151 	 
C 	 -7.37152 	 60.9324 	 50.044 	 
C 	 -7.02462 	 62.0811 	 50.7239 	 
C 	 -5.5678 	 62.3955 	 50.7299 	 
C 	 -4.79139 	 61.4027 	 50.2204 	 
H 	 -5.18143 	 63.3153 	 51.1637 	 
C 	 -8.07703 	 62.988 	 51.4377 	 
H 	 -8.0235 	 62.8615 	 52.4968 	 
H 	 -9.00697 	 62.6237 	 51.3068 	 
C 	 -8.12473 	 64.5003 	 51.0707 	 
H 	 -7.09175 	 64.8422 	 51.028 	 
H 	 -8.49823 	 64.7412 	 50.0683 	 
C 	 -8.99638 	 65.1964 	 52.1906 	 
H 	 -9.89584 	 64.6479 	 52.4713 	 
H 	 -8.48561 	 65.5284 	 53.0858 	 
H 	 -9.33725 	 66.1356 	 51.7379 	 
S 	 -2.63188 	 59.9149 	 50.8927 	 
C 	 -0.982287 	 60.3996 	 50.437 	 
C 	 -1.05218 	 61.634 	 49.8806 	 
C 	 -2.35855 	 62.145 	 49.6465 	 
C 	 -3.35759 	 61.2154 	 50.0318 	 
H 	 -0.148522 	 62.2979 	 49.6872 	 
C 	 -2.57318 	 63.5449 	 49.139 	 
H 	 -1.86108 	 64.1901 	 49.6607 	 
H 	 -3.52454 	 63.8853 	 49.4861 	 
C 	 -2.30291 	 63.7092 	 47.656 	 
H 	 -1.22657 	 63.571 	 47.431 	 
H 	 -2.5349 	 64.7298 	 47.4019 	 
C 	 -3.10758 	 62.7693 	 46.8579 	 
H 	 -4.15049 	 62.7184 	 47.0812 	 
H 	 -2.77718 	 61.7738 	 46.9836 	 
H 	 -3.13066 	 62.9872 	 45.8302 	 
H 	 -8.33973 	 60.4212 	 50.1065 	 
H 	 -0.0926932 	 59.917 	 50.8022 	 
