34

S 	 44.0602 	 3.90171 	 87.0713 	 
C 	 44.0411 	 5.63692 	 87.5297 	 
C 	 45.2785 	 6.09196 	 87.7788 	 
C 	 46.3156 	 5.07733 	 87.5181 	 
C 	 45.8128 	 3.87561 	 87.0093 	 
H 	 47.3837 	 5.2374 	 87.5277 	 
C 	 45.6743 	 7.49926 	 88.172 	 
H 	 45.1309 	 7.77906 	 89.0053 	 
H 	 45.2023 	 8.08445 	 87.3694 	 
C 	 47.242 	 7.77998 	 88.4227 	 
H 	 47.248 	 8.78287 	 88.8931 	 
H 	 47.681 	 7.02634 	 89.1506 	 
C 	 48.0288 	 7.85954 	 87.1362 	 
H 	 47.641 	 8.61062 	 86.4492 	 
H 	 48.9893 	 8.0893 	 87.3632 	 
H 	 48.143 	 6.85008 	 86.6563 	 
S 	 45.4812 	 1.52228 	 85.4539 	 
C 	 46.9227 	 0.568837 	 85.0949 	 
C 	 48.0591 	 1.006 	 85.6847 	 
C 	 47.7967 	 2.24088 	 86.398 	 
C 	 46.4639 	 2.68459 	 86.4074 	 
H 	 49.0474 	 0.515762 	 85.5399 	 
C 	 49.0458 	 2.94619 	 87.0189 	 
H 	 49.8088 	 2.28061 	 87.3302 	 
H 	 48.6947 	 3.38696 	 87.9256 	 
C 	 49.5934 	 4.10417 	 86.1244 	 
H 	 48.7204 	 4.75816 	 85.8889 	 
H 	 49.9554 	 3.66664 	 85.2495 	 
C 	 50.6897 	 4.91049 	 86.8459 	 
H 	 51.5804 	 4.27393 	 86.9188 	 
H 	 50.3426 	 5.2622 	 87.8523 	 
H 	 50.8928 	 5.7843 	 86.3511 	 
H 	 43.0683 	 6.21397 	 87.6043 	 
H 	 47.0549 	 -0.327317 	 84.5179 	 
