34

S 	 47.0112 	 11.5208 	 81.5245 	 
C 	 45.5842 	 11.8117 	 82.4863 	 
C 	 44.4201 	 11.8597 	 81.6371 	 
C 	 44.8027 	 11.8858 	 80.2827 	 
C 	 46.195 	 11.866 	 80.0403 	 
H 	 44.1211 	 12.1148 	 79.4572 	 
C 	 42.9606 	 11.9439 	 82.1586 	 
H 	 42.5727 	 12.9754 	 82.0995 	 
H 	 43.0883 	 11.7121 	 83.268 	 
C 	 42.004 	 10.9044 	 81.5343 	 
H 	 42.1565 	 10.8417 	 80.3892 	 
H 	 42.3154 	 9.95097 	 81.8783 	 
C 	 40.4783 	 11.0858 	 81.7297 	 
H 	 40.0954 	 10.8533 	 82.7278 	 
H 	 40.2863 	 12.08 	 81.4355 	 
H 	 39.9035 	 10.4739 	 81.0387 	 
S 	 48.361 	 11.4826 	 78.2462 	 
C 	 48.3479 	 12.4445 	 76.796 	 
C 	 47.4261 	 13.469 	 76.888 	 
C 	 46.6457 	 13.4823 	 78.097 	 
C 	 46.8495 	 12.2639 	 78.8108 	 
H 	 47.2914 	 14.2477 	 76.128 	 
C 	 45.7534 	 14.5992 	 78.3796 	 
H 	 45.7014 	 14.6865 	 79.4789 	 
H 	 44.7784 	 14.4686 	 77.9563 	 
C 	 46.1554 	 15.9468 	 77.8144 	 
H 	 46.1048 	 15.7247 	 76.7136 	 
H 	 47.1535 	 16.1114 	 78.2409 	 
C 	 45.0977 	 17.1617 	 78.0596 	 
H 	 44.0856 	 16.9733 	 77.6995 	 
H 	 45.5636 	 18.0583 	 77.6941 	 
H 	 45.1398 	 17.1437 	 79.1466 	 
H 	 45.625 	 11.7607 	 83.5851 	 
H 	 49.0026 	 12.3814 	 75.9611 	 
