34

S 	 -1.58585 	 25.3649 	 37.5469 	 
C 	 -2.16862 	 25.7273 	 35.9126 	 
C 	 -1.33396 	 25.1184 	 34.999 	 
C 	 -0.331034 	 24.2834 	 35.5974 	 
C 	 -0.243347 	 24.3592 	 36.9681 	 
H 	 0.274498 	 23.6648 	 34.9911 	 
C 	 -1.56026 	 25.1924 	 33.5258 	 
H 	 -0.714994 	 25.4452 	 32.9492 	 
H 	 -2.2697 	 25.8694 	 33.2796 	 
C 	 -1.96044 	 23.8459 	 32.8676 	 
H 	 -1.13592 	 23.1088 	 33.0813 	 
H 	 -2.73401 	 23.3314 	 33.3553 	 
C 	 -2.24732 	 23.8796 	 31.3774 	 
H 	 -2.43436 	 22.8473 	 30.9757 	 
H 	 -3.11183 	 24.5428 	 31.1397 	 
H 	 -1.33506 	 24.2415 	 30.8538 	 
S 	 1.4931 	 24.43 	 39.1023 	 
C 	 2.00902 	 22.9852 	 39.9434 	 
C 	 1.60063 	 21.8712 	 39.2008 	 
C 	 0.784378 	 22.1601 	 38.0415 	 
C 	 0.565892 	 23.5474 	 37.9339 	 
H 	 1.84328 	 20.9093 	 39.6046 	 
C 	 0.197683 	 21.0657 	 37.2242 	 
H 	 0.835979 	 20.1718 	 37.4091 	 
H 	 0.370245 	 21.3913 	 36.2193 	 
C 	 -1.20208 	 20.669 	 37.5613 	 
H 	 -1.13899 	 20.6721 	 38.6781 	 
H 	 -1.53977 	 19.7434 	 37.1257 	 
C 	 -2.32465 	 21.6877 	 37.1869 	 
H 	 -3.23829 	 21.2631 	 37.5244 	 
H 	 -2.40674 	 21.7359 	 36.0844 	 
H 	 -2.30157 	 22.6813 	 37.66 	 
H 	 -3.08674 	 26.1876 	 35.5669 	 
H 	 2.68796 	 22.9501 	 40.7728 	 
