34

S 	 -3.2192 	 79.1779 	 53.6327 	 
C 	 -1.64574 	 79.8825 	 53.7332 	 
C 	 -0.792384 	 79.28 	 52.7601 	 
C 	 -1.45587 	 78.296 	 52.0061 	 
C 	 -2.80379 	 78.1332 	 52.3037 	 
H 	 -1.01241 	 77.6247 	 51.2264 	 
C 	 0.691321 	 79.4812 	 52.7826 	 
H 	 1.10939 	 78.5391 	 53.1566 	 
H 	 0.900562 	 80.2686 	 53.5173 	 
C 	 1.44171 	 79.665 	 51.4442 	 
H 	 2.42017 	 79.782 	 51.788 	 
H 	 1.40311 	 78.8457 	 50.6863 	 
C 	 0.870733 	 80.8663 	 50.6991 	 
H 	 -0.146407 	 80.6661 	 50.4105 	 
H 	 0.871952 	 81.71 	 51.3576 	 
H 	 1.45985 	 81.1446 	 49.8634 	 
S 	 -4.49124 	 76.0043 	 52.9394 	 
C 	 -5.16429 	 74.9976 	 51.715 	 
C 	 -4.83229 	 75.4522 	 50.4695 	 
C 	 -3.97668 	 76.6416 	 50.5307 	 
C 	 -3.73481 	 77.146 	 51.7929 	 
H 	 -5.12539 	 75.039 	 49.614 	 
C 	 -3.41242 	 77.2758 	 49.2238 	 
H 	 -2.9303 	 78.2593 	 49.4206 	 
H 	 -4.18007 	 77.4425 	 48.4363 	 
C 	 -2.43833 	 76.3348 	 48.458 	 
H 	 -2.04936 	 76.8607 	 47.5731 	 
H 	 -3.05202 	 75.4634 	 48.2231 	 
C 	 -1.20725 	 75.8562 	 49.0909 	 
H 	 -1.39187 	 75.4378 	 50.0824 	 
H 	 -0.331583 	 76.5828 	 49.1298 	 
H 	 -0.926837 	 74.9874 	 48.5069 	 
H 	 -1.32999 	 80.5521 	 54.4903 	 
H 	 -5.77402 	 74.1618 	 51.8709 	 
