34

S 	 3.7511 	 -3.92516 	 78.6978 	 
C 	 5.36375 	 -4.09564 	 79.3968 	 
C 	 5.50384 	 -5.29706 	 80.0623 	 
C 	 4.28093 	 -5.95365 	 80.1567 	 
C 	 3.25815 	 -5.40019 	 79.4218 	 
H 	 4.02282 	 -6.89074 	 80.6555 	 
C 	 6.73729 	 -5.85808 	 80.6144 	 
H 	 7.58875 	 -5.4765 	 79.9452 	 
H 	 6.6798 	 -7.0173 	 80.4876 	 
C 	 7.10229 	 -5.50651 	 82.0417 	 
H 	 8.02971 	 -6.01098 	 82.2116 	 
H 	 7.38755 	 -4.47112 	 82.2239 	 
C 	 6.05968 	 -5.88131 	 83.1022 	 
H 	 5.85345 	 -6.94956 	 83.0255 	 
H 	 6.49786 	 -5.72153 	 84.0886 	 
H 	 5.10573 	 -5.33003 	 83.0412 	 
S 	 0.49218 	 -4.92196 	 79.5141 	 
C 	 -0.536588 	 -5.92846 	 78.4672 	 
C 	 0.172771 	 -6.96894 	 77.8917 	 
C 	 1.5225 	 -7.002 	 78.2834 	 
C 	 1.93921 	 -5.87719 	 79.0595 	 
H 	 -0.357103 	 -7.42876 	 77.1001 	 
C 	 2.4727 	 -7.96499 	 77.5647 	 
H 	 3.33689 	 -7.35614 	 77.3443 	 
H 	 2.03521 	 -8.19206 	 76.5569 	 
C 	 3.01521 	 -9.20958 	 78.3832 	 
H 	 2.04875 	 -9.63931 	 78.7495 	 
H 	 3.57336 	 -8.81924 	 79.2068 	 
C 	 3.94798 	 -10.2057 	 77.5912 	 
H 	 4.22818 	 -11.1073 	 78.2212 	 
H 	 4.8336 	 -9.7571 	 77.2213 	 
H 	 3.46969 	 -10.5771 	 76.6631 	 
H 	 6.1383 	 -3.40336 	 79.1643 	 
H 	 -1.53571 	 -5.68539 	 78.1663 	 
