34

S 	 -55.1531 	 56.0269 	 138.399 	 
C 	 -53.8517 	 56.4356 	 137.287 	 
C 	 -54.2696 	 56.7366 	 135.992 	 
C 	 -55.6455 	 56.7652 	 135.958 	 
C 	 -56.2549 	 56.3271 	 137.125 	 
H 	 -56.2069 	 57.0295 	 135.097 	 
C 	 -53.377 	 57.031 	 134.752 	 
H 	 -53.8532 	 56.7349 	 133.792 	 
H 	 -52.5139 	 56.2962 	 134.785 	 
C 	 -52.8198 	 58.4859 	 134.579 	 
H 	 -53.5693 	 59.2984 	 134.511 	 
H 	 -52.2605 	 58.7888 	 135.544 	 
C 	 -51.8565 	 58.5931 	 133.346 	 
H 	 -52.3065 	 58.651 	 132.344 	 
H 	 -51.2583 	 59.5006 	 133.324 	 
H 	 -51.088 	 57.7598 	 133.333 	 
S 	 -58.962 	 56.0941 	 136.211 	 
C 	 -60.1656 	 56.6596 	 137.358 	 
C 	 -59.6389 	 56.8271 	 138.61 	 
C 	 -58.2275 	 56.8631 	 138.683 	 
C 	 -57.6566 	 56.4977 	 137.426 	 
H 	 -60.4125 	 57.0359 	 139.319 	 
C 	 -57.578 	 57.2818 	 139.958 	 
H 	 -58.2643 	 57.9638 	 140.43 	 
H 	 -56.7136 	 57.9029 	 139.708 	 
C 	 -57.2398 	 56.1639 	 141.066 	 
H 	 -56.3886 	 56.4709 	 141.697 	 
H 	 -57.0362 	 55.2447 	 140.429 	 
C 	 -58.4986 	 55.8493 	 141.892 	 
H 	 -59.3844 	 55.7668 	 141.24 	 
H 	 -58.6906 	 56.6286 	 142.674 	 
H 	 -58.3152 	 54.917 	 142.423 	 
H 	 -52.8222 	 56.2253 	 137.425 	 
H 	 -61.2478 	 56.5848 	 137.182 	 
