34

S 	 -29.2892 	 57.2713 	 111.505 	 
C 	 -28.0769 	 57.8746 	 110.394 	 
C 	 -28.4007 	 57.7278 	 109.063 	 
C 	 -29.7815 	 57.3718 	 108.92 	 
C 	 -30.4687 	 57.0825 	 110.124 	 
H 	 -30.2922 	 57.2252 	 107.967 	 
C 	 -27.4578 	 58.0848 	 107.934 	 
H 	 -26.5437 	 57.429 	 107.957 	 
H 	 -26.9772 	 59.0679 	 108.118 	 
C 	 -28.1639 	 58.1186 	 106.579 	 
H 	 -28.4501 	 57.0911 	 106.31 	 
H 	 -29.0404 	 58.8049 	 106.663 	 
C 	 -27.4284 	 58.8135 	 105.296 	 
H 	 -27.236 	 59.8633 	 105.535 	 
H 	 -26.6092 	 58.1548 	 105.037 	 
H 	 -27.9918 	 58.8365 	 104.382 	 
S 	 -32.75 	 57.9055 	 111.358 	 
C 	 -34.3287 	 57.11 	 111.057 	 
C 	 -34.1258 	 55.9313 	 110.408 	 
C 	 -32.7538 	 55.7055 	 110.019 	 
C 	 -31.8627 	 56.7356 	 110.38 	 
H 	 -35.0202 	 55.4069 	 110.212 	 
C 	 -32.3581 	 54.4985 	 109.299 	 
H 	 -33.1309 	 53.7082 	 109.496 	 
H 	 -31.4607 	 54.1373 	 109.751 	 
C 	 -32.2096 	 54.6284 	 107.769 	 
H 	 -32.0725 	 53.6235 	 107.313 	 
H 	 -31.3687 	 55.2133 	 107.626 	 
C 	 -33.4648 	 55.2665 	 107.167 	 
H 	 -33.4043 	 56.382 	 107.406 	 
H 	 -34.3685 	 54.9759 	 107.637 	 
H 	 -33.5167 	 55.1628 	 106.064 	 
H 	 -27.0758 	 58.1665 	 110.769 	 
H 	 -35.3416 	 57.4384 	 111.318 	 
