34

S 	 -88.6538 	 49.8566 	 133.35 	 
C 	 -90.3143 	 50.2197 	 133.725 	 
C 	 -91.1405 	 50.0107 	 132.634 	 
C 	 -90.3747 	 49.798 	 131.47 	 
C 	 -89.0242 	 49.7306 	 131.614 	 
H 	 -90.8772 	 49.6508 	 130.533 	 
C 	 -92.6678 	 50.1572 	 132.705 	 
H 	 -93.1762 	 49.4987 	 133.441 	 
H 	 -93.1044 	 49.9754 	 131.744 	 
C 	 -93.1825 	 51.5777 	 133.002 	 
H 	 -94.2984 	 51.5327 	 133.001 	 
H 	 -92.8344 	 51.9097 	 133.951 	 
C 	 -92.8105 	 52.5943 	 131.913 	 
H 	 -91.7534 	 52.8036 	 132.056 	 
H 	 -92.8959 	 52.2456 	 130.883 	 
H 	 -93.275 	 53.5583 	 132.06 	 
S 	 -86.6436 	 48.43 	 131.177 	 
C 	 -85.9605 	 48.4128 	 129.558 	 
C 	 -86.8825 	 48.9921 	 128.69 	 
C 	 -88.0762 	 49.5093 	 129.253 	 
C 	 -88.0965 	 49.2737 	 130.613 	 
H 	 -86.65 	 49.019 	 127.667 	 
C 	 -89.0212 	 50.412 	 128.411 	 
H 	 -89.6172 	 50.9783 	 129.159 	 
H 	 -89.6325 	 49.7775 	 127.742 	 
C 	 -88.4448 	 51.4147 	 127.335 	 
H 	 -89.296 	 52.0591 	 126.979 	 
H 	 -88.0147 	 50.945 	 126.438 	 
C 	 -87.3447 	 52.276 	 127.853 	 
H 	 -86.5631 	 51.6301 	 128.322 	 
H 	 -87.6284 	 52.9654 	 128.629 	 
H 	 -86.9882 	 52.8439 	 126.998 	 
H 	 -90.6891 	 50.1949 	 134.728 	 
H 	 -84.9695 	 48.0218 	 129.205 	 
