34

S 	 1.11124 	 -9.59582 	 88.6906 	 
C 	 2.34887 	 -9.05125 	 89.7328 	 
C 	 1.86552 	 -8.87317 	 91.0225 	 
C 	 0.488501 	 -9.14216 	 91.1504 	 
C 	 -0.105385 	 -9.52858 	 89.9727 	 
H 	 -0.148192 	 -8.97783 	 92.0403 	 
C 	 2.61616 	 -8.29692 	 92.1801 	 
H 	 2.29002 	 -7.25959 	 92.3859 	 
H 	 3.6164 	 -8.471 	 91.7947 	 
C 	 2.50102 	 -8.95164 	 93.6323 	 
H 	 2.96752 	 -8.34633 	 94.3932 	 
H 	 1.47312 	 -8.91134 	 94.0431 	 
C 	 3.01775 	 -10.4384 	 93.5054 	 
H 	 4.11079 	 -10.4954 	 93.288 	 
H 	 2.94623 	 -10.8791 	 94.5076 	 
H 	 2.44874 	 -11.101 	 92.7955 	 
S 	 -1.82073 	 -11.2908 	 88.6103 	 
C 	 -3.46093 	 -11.0756 	 88.6624 	 
C 	 -3.84161 	 -10.2201 	 89.6668 	 
C 	 -2.7362 	 -9.51067 	 90.243 	 
C 	 -1.49142 	 -9.92449 	 89.7165 	 
H 	 -4.90795 	 -10.0853 	 89.8977 	 
C 	 -2.92631 	 -8.40412 	 91.2371 	 
H 	 -3.69565 	 -7.75431 	 90.8834 	 
H 	 -2.01195 	 -7.74129 	 91.3337 	 
C 	 -3.44847 	 -8.74857 	 92.6659 	 
H 	 -2.70341 	 -9.36472 	 93.2428 	 
H 	 -4.36613 	 -9.38777 	 92.6364 	 
C 	 -3.6568 	 -7.46023 	 93.5312 	 
H 	 -4.13456 	 -7.5622 	 94.504 	 
H 	 -4.41319 	 -6.80835 	 93.0427 	 
H 	 -2.75067 	 -6.98046 	 93.6052 	 
H 	 3.31934 	 -8.66331 	 89.4109 	 
H 	 -4.20157 	 -11.6548 	 88.1147 	 
