34

S 	 -41.3083 	 55.4685 	 108.651 	 
C 	 -42.3368 	 56.3015 	 107.578 	 
C 	 -41.638 	 57.0564 	 106.774 	 
C 	 -40.201 	 56.7711 	 106.868 	 
C 	 -39.8277 	 55.8498 	 107.8 	 
H 	 -39.4404 	 57.2086 	 106.228 	 
C 	 -42.1624 	 57.9272 	 105.649 	 
H 	 -41.3416 	 58.5322 	 105.33 	 
H 	 -42.8377 	 58.6946 	 106.158 	 
C 	 -42.9397 	 57.1042 	 104.543 	 
H 	 -42.2989 	 56.2579 	 104.263 	 
H 	 -43.8688 	 56.7445 	 104.823 	 
C 	 -43.1108 	 57.8834 	 103.302 	 
H 	 -44.1607 	 58.1253 	 103.249 	 
H 	 -42.5442 	 58.7877 	 103.204 	 
H 	 -42.8447 	 57.2903 	 102.396 	 
S 	 -37.7163 	 55.512 	 109.535 	 
C 	 -36.203 	 54.8194 	 108.892 	 
C 	 -36.2483 	 54.5539 	 107.551 	 
C 	 -37.6045 	 54.7498 	 107.099 	 
C 	 -38.4936 	 55.2916 	 108.024 	 
H 	 -35.3474 	 54.2343 	 106.959 	 
C 	 -37.8978 	 54.6368 	 105.585 	 
H 	 -38.8407 	 55.1293 	 105.295 	 
H 	 -38.1599 	 53.5394 	 105.541 	 
C 	 -36.8443 	 54.9944 	 104.584 	 
H 	 -36.0139 	 54.2919 	 104.708 	 
H 	 -36.4865 	 55.9998 	 104.703 	 
C 	 -37.3277 	 54.93 	 103.136 	 
H 	 -36.5677 	 54.7385 	 102.332 	 
H 	 -37.8916 	 55.8374 	 102.938 	 
H 	 -37.9655 	 54.0447 	 102.929 	 
H 	 -43.4528 	 56.1794 	 107.61 	 
H 	 -35.33 	 54.9052 	 109.422 	 
