34

S 	 -44.7238 	 0.521165 	 97.7823 	 
C 	 -45.1134 	 -0.79652 	 96.6486 	 
C 	 -46.1005 	 -0.41238 	 95.8406 	 
C 	 -46.518 	 0.973536 	 96.0388 	 
C 	 -45.7556 	 1.66752 	 96.9877 	 
H 	 -47.2723 	 1.51054 	 95.3994 	 
C 	 -46.7073 	 -1.23196 	 94.7403 	 
H 	 -45.8164 	 -1.66025 	 94.2867 	 
H 	 -47.1957 	 -0.627855 	 93.9555 	 
C 	 -47.5314 	 -2.42832 	 95.2243 	 
H 	 -47.7242 	 -3.11664 	 94.3347 	 
H 	 -46.9065 	 -3.02239 	 95.8564 	 
C 	 -48.8812 	 -2.17991 	 95.8076 	 
H 	 -48.7324 	 -1.49904 	 96.6949 	 
H 	 -49.6041 	 -1.79016 	 95.1052 	 
H 	 -49.2881 	 -3.15353 	 96.1219 	 
S 	 -46.0323 	 3.37552 	 99.2031 	 
C 	 -46.1168 	 5.07393 	 98.9229 	 
C 	 -46.0757 	 5.40751 	 97.6169 	 
C 	 -46.1033 	 4.23845 	 96.7446 	 
C 	 -45.9524 	 3.04893 	 97.4462 	 
H 	 -45.9338 	 6.45014 	 97.3953 	 
C 	 -46.0355 	 4.31163 	 95.2088 	 
H 	 -46.5141 	 5.21388 	 94.8587 	 
H 	 -46.6568 	 3.55381 	 94.8815 	 
C 	 -44.5556 	 4.28311 	 94.739 	 
H 	 -44.1329 	 3.30733 	 94.9681 	 
H 	 -43.8957 	 4.85398 	 95.4304 	 
C 	 -44.4534 	 4.37197 	 93.2245 	 
H 	 -45.2255 	 4.9866 	 92.7042 	 
H 	 -44.727 	 3.40586 	 92.7544 	 
H 	 -43.4898 	 4.7083 	 92.865 	 
H 	 -44.7837 	 -1.81384 	 96.6527 	 
H 	 -45.9062 	 5.78566 	 99.7094 	 
