34

S 	 -33.9717 	 57.0975 	 110.101 	 
C 	 -32.3591 	 57.6471 	 110.392 	 
C 	 -31.8864 	 57.2033 	 111.67 	 
C 	 -32.848 	 56.4318 	 112.385 	 
C 	 -34.0455 	 56.38 	 111.718 	 
H 	 -32.715 	 56.1282 	 113.391 	 
C 	 -30.565 	 57.4427 	 112.315 	 
H 	 -29.8997 	 57.5635 	 111.484 	 
H 	 -30.2503 	 56.5463 	 112.901 	 
C 	 -30.4909 	 58.6989 	 113.163 	 
H 	 -31.0363 	 58.624 	 114.066 	 
H 	 -29.4202 	 58.802 	 113.429 	 
C 	 -31.1389 	 59.9943 	 112.661 	 
H 	 -30.6463 	 60.496 	 111.868 	 
H 	 -32.1803 	 59.893 	 112.365 	 
H 	 -31.0662 	 60.735 	 113.426 	 
S 	 -36.6986 	 56.7957 	 112.323 	 
C 	 -37.513 	 55.7854 	 113.462 	 
C 	 -36.8797 	 54.5369 	 113.546 	 
C 	 -35.6464 	 54.5906 	 112.832 	 
C 	 -35.2802 	 55.8485 	 112.314 	 
H 	 -37.3261 	 53.7069 	 114.067 	 
C 	 -34.7207 	 53.4169 	 112.813 	 
H 	 -34.8875 	 52.8148 	 113.739 	 
H 	 -33.6563 	 53.7551 	 112.939 	 
C 	 -34.787 	 52.5394 	 111.452 	 
H 	 -34.0074 	 51.801 	 111.464 	 
H 	 -34.6884 	 53.1189 	 110.551 	 
C 	 -36.0933 	 51.8482 	 111.183 	 
H 	 -36.8789 	 52.5938 	 111.099 	 
H 	 -36.2917 	 51.2336 	 112.032 	 
H 	 -36.1683 	 51.2708 	 110.347 	 
H 	 -31.7659 	 58.1595 	 109.652 	 
H 	 -38.4939 	 55.9081 	 113.92 	 
