34

S 	 -3.16779 	 61.1097 	 47.7012 	 
C 	 -4.09378 	 61.7705 	 48.9893 	 
C 	 -5.14479 	 60.9809 	 49.3816 	 
C 	 -5.18785 	 59.7828 	 48.675 	 
C 	 -4.22261 	 59.7211 	 47.7124 	 
H 	 -5.95419 	 59.0131 	 48.7387 	 
C 	 -6.0587 	 61.2715 	 50.5 	 
H 	 -7.09469 	 61.5856 	 50.086 	 
H 	 -5.72658 	 62.2054 	 50.9879 	 
C 	 -6.38483 	 60.1269 	 51.4428 	 
H 	 -6.90021 	 59.3279 	 50.9357 	 
H 	 -5.46531 	 59.724 	 51.8291 	 
C 	 -7.2329 	 60.5625 	 52.6927 	 
H 	 -8.21469 	 60.9226 	 52.4576 	 
H 	 -7.3338 	 59.7081 	 53.4113 	 
H 	 -6.75939 	 61.3654 	 53.3066 	 
S 	 -4.33809 	 59.267 	 45.0554 	 
C 	 -4.27162 	 57.6525 	 44.3849 	 
C 	 -3.92825 	 56.7484 	 45.3257 	 
C 	 -3.84814 	 57.3331 	 46.6392 	 
C 	 -4.11287 	 58.6999 	 46.6398 	 
H 	 -3.79572 	 55.7448 	 45.0086 	 
C 	 -3.40655 	 56.5739 	 47.8391 	 
H 	 -4.11611 	 55.6709 	 47.7608 	 
H 	 -3.68359 	 57.0353 	 48.8321 	 
C 	 -2.00784 	 56.2518 	 47.9332 	 
H 	 -1.78429 	 55.6224 	 47.0457 	 
H 	 -1.85195 	 55.7071 	 48.8804 	 
C 	 -1.03494 	 57.4363 	 48.0153 	 
H 	 -1.24689 	 58.069 	 48.8757 	 
H 	 -1.23252 	 58.0902 	 47.1798 	 
H 	 -0.00507353 	 56.9975 	 48.1434 	 
H 	 -3.83501 	 62.6406 	 49.557 	 
H 	 -4.4772 	 57.2713 	 43.3756 	 
