34

S 	 -15.5337 	 -7.00396 	 87.1858 	 
C 	 -15.0445 	 -5.72771 	 86.1173 	 
C 	 -14.4074 	 -4.7274 	 86.7786 	 
C 	 -14.3818 	 -4.96695 	 88.2382 	 
C 	 -15.1081 	 -6.06365 	 88.604 	 
H 	 -13.7924 	 -4.40599 	 88.9487 	 
C 	 -13.9709 	 -3.44735 	 86.2161 	 
H 	 -13.3373 	 -3.03771 	 87.0098 	 
H 	 -14.8455 	 -2.82653 	 86.1828 	 
C 	 -13.2296 	 -3.50934 	 84.8351 	 
H 	 -12.2485 	 -3.92448 	 84.9505 	 
H 	 -13.7465 	 -4.28141 	 84.1748 	 
C 	 -13.0301 	 -2.12423 	 84.2042 	 
H 	 -13.9442 	 -1.84868 	 83.6596 	 
H 	 -12.7717 	 -1.38239 	 84.975 	 
H 	 -12.2766 	 -2.20831 	 83.4346 	 
S 	 -14.4149 	 -8.07928 	 90.5002 	 
C 	 -15.3986 	 -8.29836 	 91.8978 	 
C 	 -16.2888 	 -7.2644 	 92.0464 	 
C 	 -16.2506 	 -6.37362 	 90.9254 	 
C 	 -15.3201 	 -6.66302 	 89.9464 	 
H 	 -16.9743 	 -7.30084 	 92.849 	 
C 	 -17.2234 	 -5.22827 	 90.7335 	 
H 	 -18.1988 	 -5.58514 	 91.23 	 
H 	 -17.4781 	 -4.92435 	 89.7266 	 
C 	 -16.6976 	 -3.95317 	 91.4222 	 
H 	 -15.8384 	 -3.54573 	 90.9219 	 
H 	 -16.42 	 -4.23876 	 92.4382 	 
C 	 -17.7455 	 -2.89145 	 91.4011 	 
H 	 -17.4621 	 -2.0298 	 92.0601 	 
H 	 -18.6857 	 -3.29359 	 91.7235 	 
H 	 -18.0607 	 -2.36814 	 90.4642 	 
H 	 -15.4596 	 -5.68644 	 85.1286 	 
H 	 -15.2459 	 -8.95787 	 92.7554 	 
