34

S 	 -36.367 	 73.3746 	 148.694 	 
C 	 -34.6583 	 73.8187 	 149.001 	 
C 	 -33.8297 	 72.6694 	 149.05 	 
C 	 -34.5739 	 71.5187 	 148.801 	 
C 	 -35.9832 	 71.7093 	 148.808 	 
H 	 -34.1685 	 70.4736 	 148.701 	 
C 	 -32.3184 	 72.7893 	 149.149 	 
H 	 -31.9346 	 71.9309 	 149.775 	 
H 	 -31.9699 	 73.7418 	 149.625 	 
C 	 -31.6618 	 72.6441 	 147.789 	 
H 	 -31.8126 	 71.6018 	 147.427 	 
H 	 -32.0695 	 73.388 	 147.094 	 
C 	 -30.1689 	 72.8526 	 147.981 	 
H 	 -29.8747 	 73.8511 	 148.402 	 
H 	 -29.696 	 72.0344 	 148.593 	 
H 	 -29.7405 	 72.8754 	 147.023 	 
S 	 -37.9362 	 70.5194 	 147.238 	 
C 	 -38.8058 	 69.1426 	 147.902 	 
C 	 -38.5323 	 69.0049 	 149.217 	 
C 	 -37.5593 	 69.9372 	 149.683 	 
C 	 -37.0422 	 70.7556 	 148.701 	 
H 	 -39.0968 	 68.2995 	 149.826 	 
C 	 -37.1352 	 69.9248 	 151.112 	 
H 	 -37.885 	 69.4808 	 151.719 	 
H 	 -36.9714 	 71.0077 	 151.382 	 
C 	 -35.8463 	 69.1902 	 151.46 	 
H 	 -35.0399 	 69.545 	 150.834 	 
H 	 -35.7692 	 68.1652 	 151.218 	 
C 	 -35.5354 	 69.3076 	 153.001 	 
H 	 -34.5547 	 68.8164 	 153.126 	 
H 	 -36.359 	 68.8287 	 153.598 	 
H 	 -35.4297 	 70.2906 	 153.452 	 
H 	 -34.2688 	 74.7838 	 148.96 	 
H 	 -39.5498 	 68.5704 	 147.449 	 
