34

S 	 50.393 	 5.83944 	 82.9614 	 
C 	 51.9909 	 6.30345 	 83.4943 	 
C 	 51.8454 	 6.97644 	 84.7028 	 
C 	 50.5406 	 6.90499 	 85.2706 	 
C 	 49.7154 	 6.19198 	 84.4569 	 
H 	 50.2725 	 7.26328 	 86.1967 	 
C 	 53.0276 	 7.65431 	 85.3924 	 
H 	 53.8454 	 7.56211 	 84.7144 	 
H 	 53.2829 	 7.25227 	 86.3073 	 
C 	 52.9075 	 9.1976 	 85.5413 	 
H 	 52.8253 	 9.60094 	 84.5733 	 
H 	 51.9675 	 9.35944 	 86.1192 	 
C 	 54.1155 	 9.94345 	 86.1941 	 
H 	 54.4666 	 9.52676 	 87.1072 	 
H 	 55.01 	 9.94036 	 85.5082 	 
H 	 53.9648 	 11.0647 	 86.3719 	 
S 	 47.0949 	 6.60829 	 83.5581 	 
C 	 45.7371 	 5.91852 	 84.4052 	 
C 	 46.1656 	 5.40656 	 85.5869 	 
C 	 47.612 	 5.50235 	 85.822 	 
C 	 48.2967 	 5.92017 	 84.6914 	 
H 	 45.4916 	 5.04232 	 86.3029 	 
C 	 48.0938 	 4.892 	 87.1217 	 
H 	 49.1941 	 4.82541 	 87.0737 	 
H 	 47.7217 	 3.86381 	 87.056 	 
C 	 47.6853 	 5.56356 	 88.5346 	 
H 	 46.5809 	 5.49828 	 88.7509 	 
H 	 47.9272 	 6.67534 	 88.6155 	 
C 	 48.5682 	 4.97217 	 89.6236 	 
H 	 49.5868 	 5.08788 	 89.4254 	 
H 	 48.294 	 3.90334 	 89.9006 	 
H 	 48.4049 	 5.43399 	 90.5881 	 
H 	 52.9165 	 6.46217 	 83.0617 	 
H 	 44.7006 	 5.98906 	 84.081 	 
