34

S 	 -19.4939 	 0.325314 	 78.837 	 
C 	 -18.057 	 1.29768 	 78.7407 	 
C 	 -17.0251 	 0.76461 	 79.4453 	 
C 	 -17.435 	 -0.390585 	 80.187 	 
C 	 -18.8048 	 -0.756239 	 79.9986 	 
H 	 -16.6721 	 -0.922969 	 80.8268 	 
C 	 -15.6269 	 1.24883 	 79.5245 	 
H 	 -15.4391 	 2.1694 	 78.9686 	 
H 	 -15.0319 	 0.521306 	 78.9271 	 
C 	 -15.0382 	 1.47364 	 80.8911 	 
H 	 -15.4056 	 2.4338 	 81.2596 	 
H 	 -15.4431 	 0.7766 	 81.6053 	 
C 	 -13.5149 	 1.36273 	 80.7272 	 
H 	 -12.9494 	 1.60921 	 81.628 	 
H 	 -13.1984 	 0.338895 	 80.4247 	 
H 	 -13.1996 	 2.05035 	 79.977 	 
S 	 -21.2657 	 -1.63349 	 80.8442 	 
C 	 -21.4455 	 -3.10515 	 81.7578 	 
C 	 -20.2044 	 -3.81125 	 81.6944 	 
C 	 -19.0923 	 -3.07176 	 81.1312 	 
C 	 -19.5308 	 -1.83472 	 80.6275 	 
H 	 -20.1757 	 -4.81431 	 82.061 	 
C 	 -17.7107 	 -3.71087 	 81.0212 	 
H 	 -17.2506 	 -3.31975 	 80.0834 	 
H 	 -17.8772 	 -4.76218 	 80.931 	 
C 	 -16.7788 	 -3.52876 	 82.2258 	 
H 	 -17.3068 	 -3.89292 	 83.1431 	 
H 	 -16.5564 	 -2.46441 	 82.3289 	 
C 	 -15.5463 	 -4.41552 	 82.0287 	 
H 	 -14.8943 	 -4.17115 	 82.8319 	 
H 	 -15.0926 	 -4.32203 	 81.1027 	 
H 	 -15.7248 	 -5.47631 	 82.1876 	 
H 	 -17.9176 	 2.11935 	 78.0236 	 
H 	 -22.424 	 -3.45465 	 82.0902 	 
