34

S 	 42.9812 	 12.8432 	 101.046 	 
C 	 43.7629 	 14.374 	 101.532 	 
C 	 45.0728 	 14.0864 	 101.904 	 
C 	 45.5355 	 12.8615 	 101.321 	 
C 	 44.5501 	 12.0111 	 100.918 	 
H 	 46.539 	 12.4781 	 101.458 	 
C 	 46.0585 	 15.1159 	 102.517 	 
H 	 45.5151 	 15.9215 	 102.92 	 
H 	 46.608 	 15.7742 	 101.793 	 
C 	 46.9805 	 14.5691 	 103.618 	 
H 	 47.3685 	 13.6605 	 103.212 	 
H 	 47.8283 	 15.2324 	 103.845 	 
C 	 46.3142 	 14.1857 	 104.956 	 
H 	 45.6847 	 13.3047 	 104.814 	 
H 	 47.0556 	 13.8631 	 105.6 	 
H 	 45.74 	 14.9983 	 105.43 	 
S 	 44.0836 	 9.43051 	 101.589 	 
C 	 44.5489 	 8.02136 	 100.658 	 
C 	 45.2486 	 8.48446 	 99.5296 	 
C 	 45.3436 	 9.94264 	 99.4383 	 
C 	 44.7434 	 10.6061 	 100.52 	 
H 	 45.6372 	 7.72694 	 98.8457 	 
C 	 45.8971 	 10.7668 	 98.3065 	 
H 	 46.6557 	 11.3695 	 98.818 	 
H 	 45.1756 	 11.5477 	 97.9583 	 
C 	 46.6209 	 9.95907 	 97.1962 	 
H 	 47.2207 	 9.12734 	 97.5411 	 
H 	 47.3311 	 10.5023 	 96.6167 	 
C 	 45.6118 	 9.37541 	 96.2259 	 
H 	 46.0365 	 8.6998 	 95.478 	 
H 	 45.0268 	 10.1023 	 95.6581 	 
H 	 44.9031 	 8.77847 	 96.7258 	 
H 	 43.2361 	 15.2172 	 101.68 	 
H 	 44.4518 	 6.92774 	 100.875 	 
