34

S 	 0.747089 	 -24.0002 	 87.611 	 
C 	 2.4991 	 -24.3435 	 87.6054 	 
C 	 3.16911 	 -23.3387 	 88.2734 	 
C 	 2.34345 	 -22.2363 	 88.7057 	 
C 	 1.03423 	 -22.3912 	 88.2951 	 
H 	 2.62645 	 -21.3778 	 89.2885 	 
C 	 4.61283 	 -23.3483 	 88.387 	 
H 	 5.01756 	 -24.3503 	 88.4983 	 
H 	 4.8098 	 -22.8877 	 89.3023 	 
C 	 5.35326 	 -22.6127 	 87.2862 	 
H 	 6.43707 	 -22.7476 	 87.344 	 
H 	 5.08639 	 -23.013 	 86.3484 	 
C 	 5.06925 	 -21.1824 	 87.1354 	 
H 	 4.02341 	 -21.0558 	 86.7941 	 
H 	 5.3004 	 -20.762 	 88.1184 	 
H 	 5.70741 	 -20.7812 	 86.3941 	 
S 	 -1.54787 	 -22.5432 	 89.3559 	 
C 	 -2.39001 	 -21.0706 	 89.8535 	 
C 	 -1.5775 	 -20.0307 	 89.5478 	 
C 	 -0.349068 	 -20.3557 	 88.8731 	 
C 	 -0.120577 	 -21.6826 	 88.7789 	 
H 	 -2.00674 	 -19.0397 	 89.8534 	 
C 	 0.683269 	 -19.301 	 88.5431 	 
H 	 1.40808 	 -19.7191 	 87.8124 	 
H 	 1.22318 	 -19.0956 	 89.415 	 
C 	 0.103373 	 -17.9414 	 88.0567 	 
H 	 0.962116 	 -17.3393 	 87.7211 	 
H 	 -0.357888 	 -17.3987 	 88.8789 	 
C 	 -0.907854 	 -18.0541 	 86.9077 	 
H 	 -0.534566 	 -18.5548 	 86.0939 	 
H 	 -1.28124 	 -17.1017 	 86.6151 	 
H 	 -1.83578 	 -18.4872 	 87.2802 	 
H 	 3.05945 	 -25.1245 	 87.1578 	 
H 	 -3.4866 	 -20.9435 	 90.078 	 
