34

S 	 45.1738 	 12.6749 	 100.377 	 
C 	 46.599 	 13.5267 	 100.786 	 
C 	 47.6973 	 12.8064 	 100.332 	 
C 	 47.4241 	 11.6212 	 99.5848 	 
C 	 46.0756 	 11.3577 	 99.666 	 
H 	 48.1243 	 10.9094 	 99.1524 	 
C 	 49.141 	 13.2696 	 100.585 	 
H 	 49.7523 	 12.6796 	 99.9761 	 
H 	 49.3931 	 13.0854 	 101.579 	 
C 	 49.5096 	 14.7747 	 100.559 	 
H 	 48.8222 	 15.2666 	 101.275 	 
H 	 50.4845 	 14.9216 	 100.985 	 
C 	 49.3985 	 15.3766 	 99.14 	 
H 	 48.4476 	 15.3218 	 98.7056 	 
H 	 49.735 	 16.4433 	 99.1721 	 
H 	 50.0221 	 14.7665 	 98.5363 	 
S 	 44.6502 	 9.37538 	 100.852 	 
C 	 44.4233 	 7.89935 	 99.9598 	 
C 	 44.863 	 7.92787 	 98.6688 	 
C 	 45.4702 	 9.19893 	 98.3465 	 
C 	 45.4544 	 10.0635 	 99.4492 	 
H 	 44.8074 	 7.01368 	 98.115 	 
C 	 46.2672 	 9.49709 	 97.1433 	 
H 	 47.0312 	 8.74517 	 97.079 	 
H 	 46.7212 	 10.4422 	 97.3372 	 
C 	 45.4496 	 9.5305 	 95.8431 	 
H 	 45.274 	 8.46473 	 95.5808 	 
H 	 46.0963 	 10.0087 	 95.0946 	 
C 	 44.0733 	 10.3 	 95.8314 	 
H 	 43.4123 	 9.89217 	 94.9795 	 
H 	 44.1041 	 11.3956 	 95.7324 	 
H 	 43.5346 	 10.183 	 96.7476 	 
H 	 46.5997 	 14.5469 	 101.226 	 
H 	 43.8104 	 7.01822 	 100.297 	 
