34

S 	 -80.4578 	 42.7143 	 127.907 	 
C 	 -81.6567 	 41.5841 	 127.45 	 
C 	 -82.8385 	 41.8418 	 128.244 	 
C 	 -82.5414 	 42.798 	 129.279 	 
C 	 -81.2901 	 43.3466 	 129.257 	 
H 	 -83.2524 	 43.2033 	 130.012 	 
C 	 -84.1608 	 41.138 	 128.018 	 
H 	 -84.326 	 40.5523 	 128.832 	 
H 	 -84.0548 	 40.4628 	 127.206 	 
C 	 -85.4175 	 42.0106 	 127.824 	 
H 	 -85.6433 	 42.6567 	 128.689 	 
H 	 -85.2949 	 42.586 	 126.918 	 
C 	 -86.6988 	 41.1532 	 127.6 	 
H 	 -86.5302 	 40.5537 	 126.734 	 
H 	 -86.9615 	 40.5859 	 128.48 	 
H 	 -87.5305 	 41.8095 	 127.197 	 
S 	 -80.4543 	 45.9931 	 129.276 	 
C 	 -79.9091 	 46.6771 	 130.793 	 
C 	 -79.9918 	 45.7621 	 131.807 	 
C 	 -80.4975 	 44.4824 	 131.416 	 
C 	 -80.7971 	 44.4408 	 130.067 	 
H 	 -79.7323 	 46.0502 	 132.814 	 
C 	 -80.7782 	 43.4319 	 132.418 	 
H 	 -79.956 	 43.166 	 133.091 	 
H 	 -80.8702 	 42.4645 	 131.876 	 
C 	 -81.8871 	 43.8103 	 133.391 	 
H 	 -82.7795 	 44.0366 	 132.975 	 
H 	 -81.6252 	 44.716 	 133.893 	 
C 	 -82.1499 	 42.6622 	 134.363 	 
H 	 -82.7576 	 41.8712 	 133.911 	 
H 	 -82.6748 	 43.0105 	 135.26 	 
H 	 -81.2259 	 42.3199 	 134.759 	 
H 	 -81.6523 	 40.852 	 126.735 	 
H 	 -79.4741 	 47.6764 	 130.919 	 
