34

S 	 32.6238 	 24.8851 	 52.1751 	 
C 	 33.0321 	 26.4767 	 51.7865 	 
C 	 33.8033 	 27.1043 	 52.784 	 
C 	 34.0774 	 26.1502 	 53.8139 	 
C 	 33.6131 	 24.8847 	 53.6347 	 
H 	 34.6861 	 26.3618 	 54.7062 	 
C 	 34.3079 	 28.5479 	 52.8019 	 
H 	 34.8581 	 28.7974 	 51.911 	 
H 	 35.0629 	 28.5119 	 53.6376 	 
C 	 33.2982 	 29.6707 	 52.9993 	 
H 	 32.5551 	 29.4279 	 53.777 	 
H 	 33.8633 	 30.4979 	 53.4164 	 
C 	 32.6219 	 30.1466 	 51.7215 	 
H 	 32.1992 	 31.0571 	 51.9231 	 
H 	 33.2797 	 30.3077 	 50.9123 	 
H 	 31.8198 	 29.4238 	 51.6245 	 
S 	 32.6333 	 23.1003 	 55.5963 	 
C 	 33.7952 	 21.9577 	 56.2826 	 
C 	 34.9625 	 21.8957 	 55.621 	 
C 	 35.0157 	 22.9075 	 54.5551 	 
C 	 33.8465 	 23.6999 	 54.4664 	 
H 	 35.7463 	 21.1079 	 55.8993 	 
C 	 36.1884 	 23.0961 	 53.6925 	 
H 	 37.1058 	 22.8791 	 54.2598 	 
H 	 36.185 	 24.1985 	 53.537 	 
C 	 36.1172 	 22.3467 	 52.4012 	 
H 	 35.2359 	 22.771 	 51.8836 	 
H 	 36.0301 	 21.3134 	 52.6453 	 
C 	 37.2538 	 22.5852 	 51.3918 	 
H 	 37.3454 	 23.6275 	 51.3055 	 
H 	 37.2058 	 22.086 	 50.4532 	 
H 	 38.2246 	 22.236 	 51.7985 	 
H 	 32.7121 	 26.9856 	 50.9025 	 
H 	 33.546 	 21.2152 	 57.0288 	 
