34

S 	 -43.04 	 35.2943 	 79.8504 	 
C 	 -43.1546 	 36.9472 	 79.2447 	 
C 	 -41.9817 	 37.3542 	 78.6094 	 
C 	 -41.0301 	 36.2845 	 78.6249 	 
C 	 -41.3764 	 35.0896 	 79.2557 	 
H 	 -40.0601 	 36.3938 	 78.269 	 
C 	 -41.6606 	 38.7513 	 78.1694 	 
H 	 -40.7963 	 39.1424 	 78.7416 	 
H 	 -42.5376 	 39.3176 	 78.4458 	 
C 	 -41.316 	 38.8966 	 76.6576 	 
H 	 -40.5938 	 38.046 	 76.3823 	 
H 	 -42.1767 	 38.6292 	 76.0242 	 
C 	 -40.7569 	 40.2626 	 76.2494 	 
H 	 -39.7606 	 40.4053 	 76.5678 	 
H 	 -40.6915 	 40.3079 	 75.1405 	 
H 	 -41.4404 	 40.9753 	 76.7041 	 
S 	 -41.0597 	 32.3253 	 78.9191 	 
C 	 -39.5924 	 31.6616 	 79.599 	 
C 	 -38.8857 	 32.5514 	 80.4341 	 
C 	 -39.4662 	 33.868 	 80.4536 	 
C 	 -40.604 	 33.9543 	 79.6438 	 
H 	 -38.0821 	 32.1975 	 80.9938 	 
C 	 -38.845 	 35.0527 	 81.2009 	 
H 	 -39.7161 	 35.756 	 81.5024 	 
H 	 -38.3912 	 35.6852 	 80.4965 	 
C 	 -37.7056 	 34.9363 	 82.3378 	 
H 	 -36.8213 	 34.4757 	 81.8986 	 
H 	 -38.0965 	 34.1712 	 83.0863 	 
C 	 -37.5411 	 36.3211 	 83.1019 	 
H 	 -37.1149 	 37.0192 	 82.3728 	 
H 	 -36.9015 	 36.2131 	 83.9545 	 
H 	 -38.4081 	 36.6386 	 83.5964 	 
H 	 -43.8623 	 37.6269 	 79.6181 	 
H 	 -39.3319 	 30.6381 	 79.5689 	 
