34

S 	 71.3548 	 23.2441 	 77.1731 	 
C 	 72.7573 	 22.8857 	 78.2527 	 
C 	 73.7573 	 23.7965 	 78.0243 	 
C 	 73.4128 	 24.7714 	 77.0237 	 
C 	 72.0955 	 24.7015 	 76.5732 	 
H 	 74.0482 	 25.5938 	 76.539 	 
C 	 75.195 	 23.7824 	 78.5479 	 
H 	 75.8704 	 23.2608 	 77.8467 	 
H 	 75.134 	 23.1377 	 79.4081 	 
C 	 75.6141 	 25.2558 	 78.9587 	 
H 	 76.5947 	 25.1112 	 79.4294 	 
H 	 75.8884 	 25.7212 	 78.0023 	 
C 	 74.615 	 26.1296 	 79.7988 	 
H 	 74.9893 	 27.1928 	 79.9098 	 
H 	 73.6728 	 26.0066 	 79.3085 	 
H 	 74.5524 	 25.6403 	 80.8018 	 
S 	 70.573 	 24.9148 	 74.1842 	 
C 	 70.2925 	 26.5367 	 73.471 	 
C 	 70.8543 	 27.5156 	 74.3015 	 
C 	 71.4823 	 26.9506 	 75.4814 	 
C 	 71.4286 	 25.5762 	 75.5955 	 
H 	 70.7557 	 28.5473 	 73.9916 	 
C 	 72.1788 	 27.8593 	 76.4834 	 
H 	 73.1962 	 27.9919 	 76.2079 	 
H 	 72.1095 	 27.3763 	 77.4124 	 
C 	 71.5182 	 29.2208 	 76.737 	 
H 	 70.4598 	 29.0326 	 76.9001 	 
H 	 71.5968 	 29.8452 	 75.764 	 
C 	 72.2976 	 29.9168 	 77.7957 	 
H 	 72.1314 	 29.4423 	 78.7228 	 
H 	 71.9025 	 30.8618 	 77.9027 	 
H 	 73.3964 	 29.9484 	 77.6208 	 
H 	 72.925 	 22.0967 	 78.9163 	 
H 	 69.7784 	 26.675 	 72.529 	 
