34

S 	 -18.4294 	 31.0962 	 38.8118 	 
C 	 -18.1894 	 32.4499 	 40.0453 	 
C 	 -17.5291 	 33.4991 	 39.3655 	 
C 	 -17.1156 	 33.1221 	 38.045 	 
C 	 -17.4015 	 31.84 	 37.6581 	 
H 	 -16.7369 	 33.8227 	 37.3043 	 
C 	 -17.4303 	 34.9464 	 39.8315 	 
H 	 -17.9196 	 35.5441 	 39.055 	 
H 	 -16.3464 	 35.1036 	 39.7175 	 
C 	 -18.0051 	 35.2434 	 41.2392 	 
H 	 -18.2694 	 36.2764 	 41.2885 	 
H 	 -19.0057 	 34.7607 	 41.257 	 
C 	 -17.2428 	 34.8154 	 42.4911 	 
H 	 -17.8813 	 34.8768 	 43.3748 	 
H 	 -16.9779 	 33.7378 	 42.3866 	 
H 	 -16.2844 	 35.3296 	 42.6802 	 
S 	 -18.1502 	 30.0514 	 35.7839 	 
C 	 -17.0406 	 29.7558 	 34.4103 	 
C 	 -15.8996 	 30.4693 	 34.4989 	 
C 	 -15.8574 	 31.2972 	 35.6596 	 
C 	 -17.0121 	 31.1574 	 36.4311 	 
H 	 -15.2133 	 30.3634 	 33.6812 	 
C 	 -14.6571 	 32.2469 	 36.0188 	 
H 	 -13.9931 	 31.5701 	 36.6678 	 
H 	 -15.0093 	 32.9268 	 36.8755 	 
C 	 -13.787 	 32.837 	 34.9602 	 
H 	 -14.424 	 33.2315 	 34.2084 	 
H 	 -13.165 	 32.091 	 34.5298 	 
C 	 -12.7883 	 33.8881 	 35.4718 	 
H 	 -12.1626 	 33.4982 	 36.2545 	 
H 	 -13.1869 	 34.7188 	 36.0252 	 
H 	 -12.3294 	 34.3014 	 34.5822 	 
H 	 -18.6108 	 32.4286 	 40.9773 	 
H 	 -17.3134 	 29.1578 	 33.5747 	 
