34

S 	 -88.914 	 52.1972 	 130.586 	 
C 	 -88.5187 	 53.9146 	 130.759 	 
C 	 -87.1782 	 54.1669 	 130.662 	 
C 	 -86.4368 	 52.9802 	 130.377 	 
C 	 -87.1305 	 51.8495 	 130.511 	 
H 	 -85.3981 	 52.9361 	 130.367 	 
C 	 -86.6238 	 55.6082 	 130.706 	 
H 	 -87.503 	 56.3079 	 130.801 	 
H 	 -86.2042 	 55.8077 	 129.737 	 
C 	 -85.6922 	 56.0035 	 131.845 	 
H 	 -85.2339 	 56.9722 	 131.69 	 
H 	 -86.1933 	 56.1372 	 132.823 	 
C 	 -84.5002 	 55.0977 	 132.08 	 
H 	 -83.9527 	 54.8692 	 131.162 	 
H 	 -83.8262 	 55.5492 	 132.791 	 
H 	 -84.8579 	 54.148 	 132.461 	 
S 	 -87.0255 	 49.4765 	 128.992 	 
C 	 -85.5952 	 48.4788 	 129.064 	 
C 	 -84.8615 	 48.9101 	 130.116 	 
C 	 -85.4537 	 49.957 	 130.937 	 
C 	 -86.5139 	 50.5395 	 130.306 	 
H 	 -83.8656 	 48.4737 	 130.302 	 
C 	 -84.6849 	 50.4693 	 132.137 	 
H 	 -85.1255 	 51.3482 	 132.494 	 
H 	 -83.708 	 50.7834 	 131.65 	 
C 	 -84.3263 	 49.3472 	 133.201 	 
H 	 -83.5491 	 49.6841 	 133.856 	 
H 	 -83.982 	 48.3725 	 132.749 	 
C 	 -85.487 	 48.812 	 134.09 	 
H 	 -86.3908 	 48.5827 	 133.464 	 
H 	 -85.8068 	 49.6334 	 134.763 	 
H 	 -85.2553 	 47.8612 	 134.506 	 
H 	 -89.2141 	 54.6983 	 130.802 	 
H 	 -85.3384 	 47.7645 	 128.313 	 
