34

S 	 42.7541 	 15.7499 	 86.8795 	 
C 	 43.9494 	 15.6626 	 85.6831 	 
C 	 43.8936 	 14.4685 	 85.0668 	 
C 	 42.8921 	 13.5885 	 85.5087 	 
C 	 42.0322 	 14.1745 	 86.3957 	 
H 	 42.873 	 12.5481 	 85.1681 	 
C 	 44.8964 	 13.9736 	 83.9145 	 
H 	 45.2805 	 14.7966 	 83.3071 	 
H 	 44.2601 	 13.3256 	 83.3214 	 
C 	 46.0906 	 13.1589 	 84.4014 	 
H 	 45.7864 	 12.295 	 84.9947 	 
H 	 46.5654 	 12.7729 	 83.469 	 
C 	 47.1617 	 14.0569 	 85.0644 	 
H 	 48.1262 	 13.6288 	 85.1039 	 
H 	 47.3539 	 15.0033 	 84.5507 	 
H 	 46.9077 	 14.4136 	 86.0637 	 
S 	 39.6126 	 14.7854 	 87.3081 	 
C 	 38.62 	 13.5606 	 87.9856 	 
C 	 39.2666 	 12.326 	 88.1533 	 
C 	 40.6175 	 12.3958 	 87.7015 	 
C 	 40.9084 	 13.651 	 87.1759 	 
H 	 38.6735 	 11.5247 	 88.6109 	 
C 	 41.4457 	 11.1432 	 87.6408 	 
H 	 41.4987 	 10.7432 	 88.6824 	 
H 	 42.4637 	 11.5117 	 87.4236 	 
C 	 41.0191 	 9.9107 	 86.7539 	 
H 	 40.9656 	 10.0842 	 85.6967 	 
H 	 40.0783 	 9.51373 	 87.0489 	 
C 	 42.0678 	 8.84457 	 86.9404 	 
H 	 42.0951 	 8.32862 	 87.8766 	 
H 	 43.1022 	 9.18114 	 86.931 	 
H 	 42.0473 	 8.14715 	 86.1707 	 
H 	 44.6434 	 16.4309 	 85.5004 	 
H 	 37.6142 	 13.6818 	 88.2013 	 
