34

S 	 -68.5714 	 60.4297 	 126.281 	 
C 	 -68.2048 	 60.4928 	 127.941 	 
C 	 -67.7606 	 59.2713 	 128.533 	 
C 	 -67.9607 	 58.255 	 127.562 	 
C 	 -68.3335 	 58.7112 	 126.304 	 
H 	 -67.6305 	 57.2502 	 127.711 	 
C 	 -67.195 	 59.0089 	 129.91 	 
H 	 -67.6806 	 58.1637 	 130.356 	 
H 	 -67.2931 	 59.8151 	 130.598 	 
C 	 -65.6432 	 58.605 	 129.887 	 
H 	 -65.3648 	 58.1634 	 130.811 	 
H 	 -65.5775 	 57.8383 	 129.08 	 
C 	 -64.6653 	 59.7026 	 129.578 	 
H 	 -63.6182 	 59.2711 	 129.502 	 
H 	 -64.8818 	 60.135 	 128.571 	 
H 	 -64.6987 	 60.4422 	 130.341 	 
S 	 -67.2488 	 58.0946 	 123.825 	 
C 	 -68.0144 	 56.8274 	 122.869 	 
C 	 -69.156 	 56.3267 	 123.457 	 
C 	 -69.4092 	 56.8997 	 124.795 	 
C 	 -68.4565 	 57.8739 	 125.148 	 
H 	 -69.7422 	 55.533 	 122.904 	 
C 	 -70.5573 	 56.4596 	 125.672 	 
H 	 -71.4831 	 56.771 	 125.198 	 
H 	 -70.6333 	 57.043 	 126.597 	 
C 	 -70.5493 	 54.9676 	 125.877 	 
H 	 -69.833 	 54.7294 	 126.599 	 
H 	 -70.3917 	 54.4858 	 124.957 	 
C 	 -71.9206 	 54.5099 	 126.386 	 
H 	 -71.8795 	 53.4226 	 126.572 	 
H 	 -72.7054 	 54.6025 	 125.71 	 
H 	 -72.0165 	 54.92 	 127.38 	 
H 	 -68.2522 	 61.4202 	 128.411 	 
H 	 -67.645 	 56.3976 	 121.955 	 
