34

S 	 41.8438 	 13.1201 	 83.968 	 
C 	 40.806 	 11.7391 	 84.0452 	 
C 	 41.4767 	 10.508 	 83.793 	 
C 	 42.8236 	 10.7285 	 83.4606 	 
C 	 43.2764 	 12.0389 	 83.6255 	 
H 	 43.5483 	 9.97599 	 83.1218 	 
C 	 40.8743 	 9.16631 	 83.7096 	 
H 	 41.6048 	 8.42201 	 83.3508 	 
H 	 40.2547 	 9.25663 	 82.8242 	 
C 	 40.1963 	 8.58002 	 84.9679 	 
H 	 41.0077 	 8.30952 	 85.6837 	 
H 	 39.5284 	 9.33219 	 85.4647 	 
C 	 39.3678 	 7.29921 	 84.6909 	 
H 	 38.5499 	 7.54816 	 83.9827 	 
H 	 39.9864 	 6.67026 	 84.1034 	 
H 	 38.862 	 6.68314 	 85.425 	 
S 	 44.9408 	 14.1156 	 82.7664 	 
C 	 46.6594 	 13.9777 	 83.0179 	 
C 	 46.9915 	 12.8972 	 83.7451 	 
C 	 45.8133 	 12.1032 	 84.0991 	 
C 	 44.6251 	 12.5573 	 83.5999 	 
H 	 48.0064 	 12.7704 	 84.0601 	 
C 	 45.9958 	 10.8876 	 84.873 	 
H 	 46.81 	 10.3137 	 84.3995 	 
H 	 45.1683 	 10.2044 	 84.9432 	 
C 	 46.3206 	 11.1047 	 86.3304 	 
H 	 47.0649 	 11.8906 	 86.4568 	 
H 	 46.8096 	 10.2101 	 86.6446 	 
C 	 45.1361 	 11.4607 	 87.2237 	 
H 	 45.5064 	 11.4829 	 88.2373 	 
H 	 44.3184 	 10.7843 	 87.2637 	 
H 	 44.6938 	 12.3947 	 86.8144 	 
H 	 39.72 	 11.7968 	 84.2276 	 
H 	 47.3256 	 14.6886 	 82.6005 	 
