34

S 	 22.8795 	 8.99524 	 64.8818 	 
C 	 24.2458 	 9.75575 	 64.1281 	 
C 	 24.7704 	 10.6943 	 64.9684 	 
C 	 24.1429 	 10.6882 	 66.2971 	 
C 	 23.1505 	 9.77561 	 66.4622 	 
H 	 24.3949 	 11.3834 	 67.0586 	 
C 	 25.8946 	 11.5584 	 64.6119 	 
H 	 26.4283 	 11.2375 	 63.6785 	 
H 	 26.6072 	 11.3538 	 65.382 	 
C 	 25.8036 	 13.0406 	 64.8465 	 
H 	 25.1263 	 13.1424 	 65.7887 	 
H 	 26.7725 	 13.4673 	 65.2412 	 
C 	 25.2067 	 13.7887 	 63.7076 	 
H 	 25.2698 	 14.9272 	 63.8109 	 
H 	 25.5939 	 13.5424 	 62.7446 	 
H 	 24.1849 	 13.5215 	 63.5686 	 
S 	 20.525 	 9.78262 	 67.0212 	 
C 	 19.9363 	 9.34966 	 68.5793 	 
C 	 20.9837 	 9.29993 	 69.4893 	 
C 	 22.3197 	 9.36477 	 68.8945 	 
C 	 22.1645 	 9.64353 	 67.559 	 
H 	 20.6831 	 9.12385 	 70.5371 	 
C 	 23.589 	 9.16454 	 69.7 	 
H 	 23.5934 	 9.72292 	 70.6238 	 
H 	 24.3921 	 9.47818 	 68.9848 	 
C 	 23.983 	 7.6728 	 69.9104 	 
H 	 23.9009 	 7.26909 	 68.8568 	 
H 	 23.1966 	 7.14028 	 70.4244 	 
C 	 25.2865 	 7.45431 	 70.5729 	 
H 	 25.948 	 8.08719 	 69.9459 	 
H 	 25.4332 	 6.34922 	 70.4871 	 
H 	 25.2999 	 7.78449 	 71.5709 	 
H 	 24.7346 	 9.55008 	 63.1822 	 
H 	 18.8681 	 9.22913 	 68.8842 	 
