34

S 	 -1.92581 	 18.7163 	 53.9403 	 
C 	 -1.00403 	 18.5664 	 52.4331 	 
C 	 0.405503 	 18.6139 	 52.7944 	 
C 	 0.625111 	 18.9257 	 54.1404 	 
C 	 -0.513463 	 19.0545 	 54.8863 	 
H 	 1.63363 	 19.0607 	 54.5763 	 
C 	 1.60662 	 18.6586 	 51.8905 	 
H 	 2.54549 	 18.3835 	 52.4984 	 
H 	 1.63936 	 19.7203 	 51.5834 	 
C 	 1.6239 	 17.7736 	 50.6176 	 
H 	 1.26347 	 16.7893 	 50.7739 	 
H 	 0.894477 	 18.1603 	 49.8936 	 
C 	 2.92365 	 17.7362 	 49.8238 	 
H 	 3.34137 	 18.7066 	 49.4967 	 
H 	 3.66066 	 17.2521 	 50.4519 	 
H 	 2.76861 	 17.0785 	 48.967 	 
S 	 -1.71056 	 18.5243 	 57.2695 	 
C 	 -1.41966 	 19.6205 	 58.5889 	 
C 	 -0.29999 	 20.4746 	 58.3916 	 
C 	 0.188852 	 20.3205 	 57.0406 	 
C 	 -0.561645 	 19.4654 	 56.3001 	 
H 	 -0.0465046 	 21.1314 	 59.2743 	 
C 	 1.30876 	 21.2976 	 56.5775 	 
H 	 0.904284 	 22.2762 	 56.7054 	 
H 	 1.47697 	 21.1487 	 55.4711 	 
C 	 2.64065 	 21.1637 	 57.3532 	 
H 	 2.4788 	 21.5553 	 58.3471 	 
H 	 3.43197 	 21.7928 	 56.88 	 
C 	 3.26067 	 19.7275 	 57.43 	 
H 	 2.67033 	 18.9418 	 57.9203 	 
H 	 4.25395 	 19.8702 	 58.0272 	 
H 	 3.53046 	 19.3583 	 56.4104 	 
H 	 -1.40284 	 18.4083 	 51.4275 	 
H 	 -1.796 	 19.6037 	 59.5944 	 
