34

S 	 -6.50865 	 66.1822 	 52.8604 	 
C 	 -7.52281 	 64.8 	 52.61 	 
C 	 -7.91211 	 64.1537 	 53.8146 	 
C 	 -7.1346 	 64.719 	 54.9102 	 
C 	 -6.32621 	 65.7776 	 54.5752 	 
H 	 -7.0935 	 64.4545 	 56.0169 	 
C 	 -8.78883 	 62.9129 	 53.9506 	 
H 	 -8.4227 	 62.1891 	 54.7863 	 
H 	 -8.69788 	 62.4393 	 53.0505 	 
C 	 -10.2142 	 63.1477 	 54.2718 	 
H 	 -10.1397 	 63.5527 	 55.2469 	 
H 	 -10.7644 	 63.785 	 53.5097 	 
C 	 -11.1299 	 61.8536 	 54.3543 	 
H 	 -11.2162 	 61.5319 	 55.3879 	 
H 	 -12.144 	 62.0237 	 53.9194 	 
H 	 -10.6325 	 60.9304 	 53.8904 	 
S 	 -3.74607 	 66.531 	 54.7376 	 
C 	 -3.26838 	 67.6029 	 56.0948 	 
C 	 -4.15227 	 67.5974 	 57.0879 	 
C 	 -5.37783 	 66.9567 	 56.681 	 
C 	 -5.34118 	 66.4226 	 55.3705 	 
H 	 -4.038 	 68.1537 	 58.0134 	 
C 	 -6.60572 	 67.1064 	 57.5623 	 
H 	 -6.36464 	 66.7107 	 58.5876 	 
H 	 -7.42707 	 66.5165 	 57.1627 	 
C 	 -7.14313 	 68.5417 	 57.5922 	 
H 	 -7.38951 	 68.701 	 56.5383 	 
H 	 -6.34788 	 69.358 	 57.841 	 
C 	 -8.41113 	 68.6855 	 58.5117 	 
H 	 -9.06511 	 67.7931 	 58.5472 	 
H 	 -8.94622 	 69.5416 	 58.1776 	 
H 	 -8.12247 	 68.8684 	 59.5504 	 
H 	 -7.95024 	 64.5069 	 51.6692 	 
H 	 -2.23342 	 68.0525 	 56.2514 	 
