34

S 	 -17.7521 	 57.5056 	 63.2775 	 
C 	 -16.8502 	 56.0229 	 62.9801 	 
C 	 -15.4892 	 56.1364 	 63.2428 	 
C 	 -15.2001 	 57.5033 	 63.6025 	 
C 	 -16.3052 	 58.3803 	 63.7223 	 
H 	 -14.2771 	 57.9587 	 63.7995 	 
C 	 -14.4197 	 55.0783 	 63.1479 	 
H 	 -14.6653 	 54.2786 	 63.8306 	 
H 	 -13.4901 	 55.562 	 63.4961 	 
C 	 -14.2478 	 54.4121 	 61.7619 	 
H 	 -15.1357 	 53.7585 	 61.5928 	 
H 	 -14.2787 	 55.1325 	 60.9734 	 
C 	 -12.9517 	 53.6468 	 61.7596 	 
H 	 -12.2066 	 54.4428 	 61.6537 	 
H 	 -12.7406 	 53.107 	 62.6685 	 
H 	 -12.7693 	 52.9901 	 60.9527 	 
S 	 -17.0336 	 60.7416 	 62.5751 	 
C 	 -16.2637 	 62.174 	 63.298 	 
C 	 -15.6141 	 61.9409 	 64.504 	 
C 	 -15.6529 	 60.5193 	 64.8576 	 
C 	 -16.3492 	 59.7683 	 63.9066 	 
H 	 -15.1387 	 62.6887 	 65.1214 	 
C 	 -14.8924 	 59.9091 	 66.0791 	 
H 	 -14.2413 	 59.1515 	 65.6066 	 
H 	 -15.5374 	 59.2231 	 66.6395 	 
C 	 -14.1762 	 60.8523 	 66.9321 	 
H 	 -13.6203 	 61.5395 	 66.2525 	 
H 	 -13.3541 	 60.314 	 67.4665 	 
C 	 -15.1285 	 61.6043 	 67.8888 	 
H 	 -15.9957 	 62.1063 	 67.4015 	 
H 	 -14.5442 	 62.3574 	 68.3678 	 
H 	 -15.6831 	 60.9287 	 68.5818 	 
H 	 -17.1699 	 55.039 	 62.9411 	 
H 	 -16.3748 	 63.1827 	 62.8768 	 
