34

S 	 -110.842 	 46.5951 	 129.657 	 
C 	 -110.369 	 47.2291 	 131.302 	 
C 	 -109.148 	 46.8057 	 131.686 	 
C 	 -108.465 	 46.2049 	 130.601 	 
C 	 -109.251 	 45.8796 	 129.502 	 
H 	 -107.425 	 45.8478 	 130.607 	 
C 	 -108.478 	 47.0338 	 133.09 	 
H 	 -108.389 	 45.9573 	 133.39 	 
H 	 -109.253 	 47.5386 	 133.726 	 
C 	 -107.133 	 47.6994 	 133.12 	 
H 	 -106.311 	 47.0179 	 132.729 	 
H 	 -107.093 	 48.5618 	 132.545 	 
C 	 -106.719 	 48.2426 	 134.474 	 
H 	 -107.426 	 48.9428 	 134.791 	 
H 	 -106.798 	 47.4607 	 135.278 	 
H 	 -105.701 	 48.6962 	 134.451 	 
S 	 -108.244 	 45.8774 	 126.885 	 
C 	 -107.846 	 44.384 	 126.04 	 
C 	 -108.04 	 43.3136 	 126.879 	 
C 	 -108.525 	 43.6941 	 128.187 	 
C 	 -108.726 	 45.0597 	 128.387 	 
H 	 -107.879 	 42.3397 	 126.57 	 
C 	 -108.839 	 42.5688 	 129.192 	 
H 	 -109.237 	 41.6562 	 128.72 	 
H 	 -109.743 	 43.0282 	 129.662 	 
C 	 -107.801 	 42.1933 	 130.271 	 
H 	 -108.338 	 41.643 	 130.991 	 
H 	 -107.282 	 43.0996 	 130.752 	 
C 	 -106.601 	 41.3805 	 129.672 	 
H 	 -106.869 	 40.3421 	 129.315 	 
H 	 -105.849 	 41.2638 	 130.428 	 
H 	 -106.216 	 41.9461 	 128.827 	 
H 	 -111.036 	 47.8596 	 131.911 	 
H 	 -107.495 	 44.3216 	 124.989 	 
