34

S 	 -4.48731 	 -5.56227 	 81.8856 	 
C 	 -4.89665 	 -7.17093 	 82.1817 	 
C 	 -4.68902 	 -7.57261 	 83.5169 	 
C 	 -4.22142 	 -6.4476 	 84.3114 	 
C 	 -4.03452 	 -5.3068 	 83.617 	 
H 	 -3.87566 	 -6.46197 	 85.4031 	 
C 	 -5.03052 	 -8.90149 	 83.9495 	 
H 	 -4.00212 	 -9.37928 	 84.0351 	 
H 	 -5.44205 	 -9.53655 	 83.1679 	 
C 	 -5.99762 	 -9.02353 	 85.1173 	 
H 	 -5.79976 	 -9.89681 	 85.8274 	 
H 	 -5.81708 	 -8.17701 	 85.7979 	 
C 	 -7.44652 	 -9.08364 	 84.7677 	 
H 	 -7.64472 	 -10.1376 	 84.5106 	 
H 	 -7.9534 	 -8.74708 	 85.6455 	 
H 	 -7.74106 	 -8.3853 	 83.962 	 
S 	 -2.3756 	 -3.17087 	 82.9766 	 
C 	 -1.85857 	 -2.16322 	 84.3025 	 
C 	 -2.52427 	 -2.48036 	 85.4642 	 
C 	 -3.4109 	 -3.57987 	 85.3808 	 
C 	 -3.42677 	 -4.1042 	 84.0694 	 
H 	 -2.26241 	 -1.7349 	 86.2634 	 
C 	 -4.20358 	 -4.07902 	 86.6201 	 
H 	 -3.9892 	 -3.40447 	 87.4807 	 
H 	 -3.86192 	 -5.05944 	 86.977 	 
C 	 -5.74442 	 -3.89543 	 86.39 	 
H 	 -6.28241 	 -4.32672 	 87.2161 	 
H 	 -6.08756 	 -4.56418 	 85.5503 	 
C 	 -6.23972 	 -2.44047 	 86.1734 	 
H 	 -7.29371 	 -2.33305 	 86.1584 	 
H 	 -5.81882 	 -2.1653 	 85.2139 	 
H 	 -5.87472 	 -1.81221 	 87.0032 	 
H 	 -5.33943 	 -7.89963 	 81.5104 	 
H 	 -1.1922 	 -1.3744 	 84.2259 	 
