34

S 	 -40.6185 	 35.4661 	 84.4408 	 
C 	 -42.0537 	 35.97 	 85.2074 	 
C 	 -42.7524 	 34.8267 	 85.5926 	 
C 	 -42.0926 	 33.5733 	 85.2787 	 
C 	 -40.911 	 33.7607 	 84.7212 	 
H 	 -42.3039 	 32.5574 	 85.6267 	 
C 	 -44.0287 	 34.706 	 86.2695 	 
H 	 -44.0729 	 35.3447 	 87.1688 	 
H 	 -43.9555 	 33.6799 	 86.6988 	 
C 	 -45.2882 	 34.6833 	 85.4063 	 
H 	 -46.0742 	 34.8995 	 86.091 	 
H 	 -45.1861 	 35.4443 	 84.654 	 
C 	 -45.4711 	 33.3791 	 84.6141 	 
H 	 -46.2084 	 33.3865 	 83.8645 	 
H 	 -44.5649 	 33.1658 	 84.0637 	 
H 	 -45.7293 	 32.5037 	 85.2625 	 
S 	 -38.3922 	 32.8313 	 85.5766 	 
C 	 -37.9772 	 31.2564 	 85.1316 	 
C 	 -38.9148 	 30.5816 	 84.3805 	 
C 	 -40.0351 	 31.4256 	 84.0696 	 
C 	 -39.9121 	 32.6662 	 84.7076 	 
H 	 -38.7032 	 29.5585 	 84.0126 	 
C 	 -41.2155 	 30.8605 	 83.2229 	 
H 	 -40.8406 	 30.481 	 82.2221 	 
H 	 -41.9 	 31.6022 	 82.8348 	 
C 	 -42.0691 	 29.8132 	 83.9546 	 
H 	 -42.4877 	 30.1323 	 84.9171 	 
H 	 -41.3803 	 29.035 	 84.225 	 
C 	 -43.1573 	 29.1924 	 83.1185 	 
H 	 -43.8527 	 29.9418 	 82.7552 	 
H 	 -43.7603 	 28.5148 	 83.7667 	 
H 	 -42.6469 	 28.6381 	 82.3429 	 
H 	 -42.5006 	 36.9558 	 85.299 	 
H 	 -36.945 	 30.8732 	 85.4414 	 
