34

S 	 1.46909 	 -16.5331 	 83.1323 	 
C 	 0.744051 	 -17.7811 	 84.0374 	 
C 	 -0.488664 	 -17.3391 	 84.5099 	 
C 	 -0.866932 	 -15.9961 	 84.1197 	 
C 	 0.12278 	 -15.4377 	 83.3513 	 
H 	 -1.85092 	 -15.5521 	 84.3019 	 
C 	 -1.41736 	 -18.2863 	 85.1411 	 
H 	 -2.04842 	 -17.7981 	 85.8572 	 
H 	 -0.813145 	 -19.0629 	 85.6804 	 
C 	 -2.3554 	 -19.0435 	 84.156 	 
H 	 -1.60177 	 -19.733 	 83.6654 	 
H 	 -2.96378 	 -19.722 	 84.7746 	 
C 	 -3.23412 	 -18.3005 	 83.2132 	 
H 	 -3.53061 	 -19.1138 	 82.499 	 
H 	 -4.19387 	 -17.9138 	 83.6235 	 
H 	 -2.74587 	 -17.4561 	 82.7986 	 
S 	 0.773836 	 -14.0815 	 81.0659 	 
C 	 0.118145 	 -12.4866 	 80.8022 	 
C 	 -0.424174 	 -11.8905 	 81.9313 	 
C 	 -0.571901 	 -12.901 	 83.0083 	 
C 	 0.0216034 	 -14.1432 	 82.6862 	 
H 	 -0.735824 	 -10.882 	 81.8092 	 
C 	 -1.18761 	 -12.5719 	 84.3212 	 
H 	 -0.691167 	 -11.7053 	 84.8084 	 
H 	 -1.0041 	 -13.4038 	 84.9781 	 
C 	 -2.67134 	 -12.3073 	 84.4011 	 
H 	 -3.15602 	 -13.1367 	 83.9708 	 
H 	 -3.06735 	 -11.5376 	 83.7061 	 
C 	 -3.0107 	 -12.0577 	 85.8714 	 
H 	 -2.8572 	 -12.9446 	 86.4408 	 
H 	 -4.08721 	 -11.7252 	 85.7975 	 
H 	 -2.61043 	 -11.1178 	 86.326 	 
H 	 1.06289 	 -18.7532 	 84.3084 	 
H 	 0.210857 	 -12.0726 	 79.8336 	 
