34

S 	 -44.1489 	 49.7444 	 103.749 	 
C 	 -44.7605 	 50.6808 	 105.027 	 
C 	 -44.2312 	 50.3304 	 106.195 	 
C 	 -43.2121 	 49.3946 	 106.023 	 
C 	 -43.0497 	 48.8472 	 104.774 	 
H 	 -42.5736 	 49.0975 	 106.862 	 
C 	 -44.6793 	 50.8151 	 107.545 	 
H 	 -45.2512 	 51.7598 	 107.267 	 
H 	 -43.7887 	 51.1112 	 108.192 	 
C 	 -45.6204 	 49.9767 	 108.322 	 
H 	 -45.101 	 49.0262 	 108.464 	 
H 	 -45.7608 	 50.4643 	 109.283 	 
C 	 -46.9462 	 49.6069 	 107.722 	 
H 	 -47.616 	 50.3967 	 107.57 	 
H 	 -46.7807 	 49.1057 	 106.725 	 
H 	 -47.3273 	 48.8146 	 108.421 	 
S 	 -42.9572 	 46.193 	 103.736 	 
C 	 -41.4528 	 45.5472 	 103.379 	 
C 	 -40.4334 	 46.4622 	 103.519 	 
C 	 -40.858 	 47.689 	 104.129 	 
C 	 -42.1833 	 47.7392 	 104.247 	 
H 	 -39.3754 	 46.0913 	 103.276 	 
C 	 -39.7656 	 48.7613 	 104.302 	 
H 	 -38.8187 	 48.2823 	 104.312 	 
H 	 -39.8045 	 49.3649 	 105.209 	 
C 	 -39.6814 	 49.7758 	 103.177 	 
H 	 -40.7184 	 50.1118 	 102.878 	 
H 	 -39.3082 	 49.1801 	 102.319 	 
C 	 -38.7937 	 51.0492 	 103.595 	 
H 	 -39.3637 	 51.7234 	 104.136 	 
H 	 -38.5487 	 51.5895 	 102.719 	 
H 	 -37.8754 	 50.8264 	 104.177 	 
H 	 -45.4842 	 51.5107 	 104.869 	 
H 	 -41.3364 	 44.5297 	 103.039 	 
