34

S 	 -61.0661 	 51.3285 	 136.211 	 
C 	 -61.2705 	 52.8709 	 135.485 	 
C 	 -60.3051 	 53.7869 	 135.988 	 
C 	 -59.4995 	 53.2582 	 137.033 	 
C 	 -59.7914 	 51.9071 	 137.284 	 
H 	 -58.7288 	 53.6739 	 137.671 	 
C 	 -60.2299 	 55.3151 	 135.642 	 
H 	 -60.2679 	 55.2882 	 134.509 	 
H 	 -59.1706 	 55.6925 	 135.817 	 
C 	 -61.2788 	 56.2495 	 136.258 	 
H 	 -62.2725 	 55.8393 	 136.095 	 
H 	 -61.0331 	 56.2029 	 137.33 	 
C 	 -61.0771 	 57.6857 	 135.688 	 
H 	 -61.5156 	 57.8667 	 134.729 	 
H 	 -61.7232 	 58.343 	 136.272 	 
H 	 -60.0076 	 58.0433 	 135.727 	 
S 	 -57.6199 	 50.2243 	 137.692 	 
C 	 -57.3595 	 49.4927 	 139.294 	 
C 	 -58.3683 	 49.9034 	 140.163 	 
C 	 -59.4218 	 50.6365 	 139.555 	 
C 	 -59.1414 	 50.958 	 138.237 	 
H 	 -58.3562 	 49.5867 	 141.236 	 
C 	 -60.4852 	 51.2858 	 140.319 	 
H 	 -60.3752 	 52.3325 	 140.208 	 
H 	 -60.3038 	 51.103 	 141.364 	 
C 	 -61.9687 	 50.8262 	 139.885 	 
H 	 -62.1977 	 49.7388 	 139.938 	 
H 	 -62.0157 	 51.2084 	 138.857 	 
C 	 -63.005 	 51.4871 	 140.706 	 
H 	 -63.0821 	 52.5565 	 140.665 	 
H 	 -62.856 	 51.2103 	 141.771 	 
H 	 -64.004 	 51.1354 	 140.417 	 
H 	 -62.1462 	 53.0783 	 134.917 	 
H 	 -56.4894 	 48.9619 	 139.579 	 
