34

S 	 -34.849 	 76.9474 	 155.125 	 
C 	 -33.3179 	 77.7814 	 155.137 	 
C 	 -32.4529 	 77.1658 	 154.246 	 
C 	 -33.124 	 76.2161 	 153.408 	 
C 	 -34.4717 	 76.0546 	 153.666 	 
H 	 -32.5717 	 75.7528 	 152.637 	 
C 	 -30.9953 	 77.5107 	 154.055 	 
H 	 -30.6296 	 78.1082 	 154.84 	 
H 	 -30.9404 	 78.1487 	 153.189 	 
C 	 -30.0434 	 76.3736 	 154.276 	 
H 	 -30.0673 	 76.1036 	 155.369 	 
H 	 -30.4321 	 75.449 	 153.823 	 
C 	 -28.6251 	 76.771 	 153.801 	 
H 	 -28.3755 	 77.7657 	 154.196 	 
H 	 -27.7463 	 76.3005 	 154.089 	 
H 	 -28.5981 	 76.8286 	 152.715 	 
S 	 -36.2801 	 75.9773 	 151.606 	 
C 	 -37.4293 	 74.719 	 151.505 	 
C 	 -37.2246 	 73.7238 	 152.5 	 
C 	 -36.1613 	 74.0667 	 153.385 	 
C 	 -35.5021 	 75.2427 	 152.995 	 
H 	 -37.9071 	 72.8598 	 152.519 	 
C 	 -35.6211 	 73.2826 	 154.587 	 
H 	 -34.7547 	 73.7971 	 154.968 	 
H 	 -35.2168 	 72.2724 	 154.167 	 
C 	 -36.6334 	 73.0479 	 155.765 	 
H 	 -36.0691 	 72.5336 	 156.58 	 
H 	 -37.2925 	 72.3661 	 155.41 	 
C 	 -37.5084 	 74.2713 	 156.209 	 
H 	 -38.2528 	 73.8909 	 156.832 	 
H 	 -37.951 	 74.7113 	 155.345 	 
H 	 -36.8855 	 75.0101 	 156.704 	 
H 	 -33.0264 	 78.6364 	 155.823 	 
H 	 -38.1623 	 74.6757 	 150.689 	 
