34

S 	 18.5054 	 12.9419 	 90.1865 	 
C 	 19.5881 	 11.9159 	 89.2486 	 
C 	 19.1141 	 11.5908 	 88.0328 	 
C 	 17.8291 	 12.1826 	 87.8295 	 
C 	 17.3105 	 12.8535 	 88.9361 	 
H 	 17.189 	 11.9593 	 86.9769 	 
C 	 19.9472 	 10.9318 	 86.9574 	 
H 	 19.1204 	 10.4812 	 86.3414 	 
H 	 20.5122 	 10.1273 	 87.3454 	 
C 	 20.7257 	 11.9867 	 86.1249 	 
H 	 21.2858 	 12.6757 	 86.7767 	 
H 	 21.4523 	 11.4985 	 85.5098 	 
C 	 19.8812 	 12.8598 	 85.1896 	 
H 	 19.105 	 13.5079 	 85.6957 	 
H 	 20.5544 	 13.4827 	 84.6319 	 
H 	 19.4571 	 12.2059 	 84.4546 	 
S 	 15.3607 	 14.8316 	 88.6194 	 
C 	 13.6548 	 14.3887 	 88.9231 	 
C 	 13.6056 	 13.0837 	 89.4364 	 
C 	 14.8053 	 12.3953 	 89.422 	 
C 	 15.875 	 13.1825 	 89.0239 	 
H 	 12.687 	 12.7303 	 89.8033 	 
C 	 14.8414 	 10.9711 	 89.8031 	 
H 	 15.7682 	 10.6711 	 89.3483 	 
H 	 13.9213 	 10.5516 	 89.4626 	 
C 	 14.9689 	 10.7321 	 91.3101 	 
H 	 15.9174 	 11.2052 	 91.6255 	 
H 	 15.2085 	 9.64541 	 91.3908 	 
C 	 13.736 	 11.1276 	 92.1432 	 
H 	 13.4215 	 12.1203 	 92.0316 	 
H 	 13.7782 	 11.1015 	 93.1994 	 
H 	 12.8669 	 10.5331 	 91.9973 	 
H 	 20.5671 	 11.5976 	 89.6702 	 
H 	 12.8848 	 15.159 	 88.7659 	 
