34

S 	 -37.9945 	 30.812 	 93.0559 	 
C 	 -38.5426 	 29.7929 	 94.3375 	 
C 	 -39.8718 	 29.4296 	 94.2806 	 
C 	 -40.4176 	 29.8204 	 93.0217 	 
C 	 -39.5278 	 30.5916 	 92.2497 	 
H 	 -41.3935 	 29.6308 	 92.6238 	 
C 	 -40.4086 	 28.3785 	 95.3325 	 
H 	 -39.7025 	 28.23 	 96.1274 	 
H 	 -40.5683 	 27.4249 	 94.7767 	 
C 	 -41.708 	 28.7519 	 96.1095 	 
H 	 -41.9577 	 27.9176 	 96.794 	 
H 	 -41.5046 	 29.6421 	 96.6984 	 
C 	 -42.8106 	 29.066 	 95.1598 	 
H 	 -42.6272 	 30.0056 	 94.7833 	 
H 	 -42.847 	 28.3465 	 94.3322 	 
H 	 -43.7224 	 29.13 	 95.6845 	 
S 	 -41.1883 	 32.0292 	 90.548 	 
C 	 -40.7934 	 32.0713 	 88.8206 	 
C 	 -39.6529 	 31.3253 	 88.5714 	 
C 	 -39.0627 	 30.7409 	 89.7066 	 
C 	 -39.7578 	 31.0307 	 90.89 	 
H 	 -39.4484 	 31.177 	 87.5342 	 
C 	 -37.7842 	 29.9215 	 89.6135 	 
H 	 -37.6955 	 29.2269 	 90.4218 	 
H 	 -36.8282 	 30.5872 	 89.7517 	 
C 	 -37.5925 	 29.2307 	 88.2273 	 
H 	 -37.6282 	 29.9778 	 87.4462 	 
H 	 -38.4975 	 28.5729 	 87.9802 	 
C 	 -36.2739 	 28.5247 	 88.0951 	 
H 	 -36.4645 	 27.4047 	 88.1563 	 
H 	 -35.5666 	 28.8807 	 88.8486 	 
H 	 -35.9043 	 28.8519 	 87.1286 	 
H 	 -37.9568 	 29.4962 	 95.1703 	 
H 	 -41.3978 	 32.471 	 87.9954 	 
