34

S 	 -11.8201 	 -6.90149 	 85.7574 	 
C 	 -11.6597 	 -7.346 	 87.412 	 
C 	 -12.8951 	 -7.30671 	 88.0959 	 
C 	 -13.9401 	 -6.84347 	 87.2341 	 
C 	 -13.607 	 -6.62876 	 85.8844 	 
H 	 -14.9775 	 -6.68244 	 87.4985 	 
C 	 -13.132 	 -7.62765 	 89.5769 	 
H 	 -12.8822 	 -6.68148 	 90.1822 	 
H 	 -12.3923 	 -8.35021 	 89.9305 	 
C 	 -14.5305 	 -8.04816 	 89.9799 	 
H 	 -14.6618 	 -7.7054 	 91.0204 	 
H 	 -15.4186 	 -7.48834 	 89.5476 	 
C 	 -14.8697 	 -9.55884 	 89.9206 	 
H 	 -15.7395 	 -9.66168 	 90.5294 	 
H 	 -15.2948 	 -9.71254 	 88.8534 	 
H 	 -14.0771 	 -10.3369 	 90.0153 	 
S 	 -13.8468 	 -5.40241 	 83.5064 	 
C 	 -15.3179 	 -5.59459 	 82.5112 	 
C 	 -16.2311 	 -6.3576 	 83.221 	 
C 	 -15.8279 	 -6.76052 	 84.5273 	 
C 	 -14.5248 	 -6.32711 	 84.789 	 
H 	 -17.1879 	 -6.55492 	 82.7545 	 
C 	 -16.6473 	 -7.6946 	 85.4271 	 
H 	 -17.6102 	 -7.2165 	 85.4388 	 
H 	 -16.2449 	 -7.86439 	 86.3669 	 
C 	 -16.9048 	 -9.08883 	 84.8282 	 
H 	 -17.3884 	 -9.11329 	 83.7948 	 
H 	 -17.5296 	 -9.71433 	 85.4919 	 
C 	 -15.6928 	 -10.0064 	 84.5254 	 
H 	 -15.0153 	 -9.50663 	 83.7646 	 
H 	 -16.0711 	 -10.9669 	 84.1102 	 
H 	 -15.1171 	 -10.2475 	 85.3357 	 
H 	 -10.6618 	 -7.66883 	 87.8453 	 
H 	 -15.5292 	 -5.16063 	 81.5303 	 
