34

S 	 -88.2509 	 50.8904 	 132.025 	 
C 	 -89.5247 	 52.1194 	 132.089 	 
C 	 -89.2024 	 53.1079 	 131.193 	 
C 	 -88.0651 	 52.8113 	 130.368 	 
C 	 -87.4647 	 51.6334 	 130.682 	 
H 	 -87.754 	 53.5059 	 129.582 	 
C 	 -90.1079 	 54.2862 	 130.868 	 
H 	 -90.9601 	 53.8331 	 130.491 	 
H 	 -89.8392 	 54.9128 	 129.995 	 
C 	 -90.6074 	 55.165 	 132.045 	 
H 	 -91.6587 	 55.4429 	 131.894 	 
H 	 -90.6825 	 54.567 	 133.003 	 
C 	 -89.6545 	 56.3859 	 132.4 	 
H 	 -90.0315 	 56.8828 	 133.321 	 
H 	 -88.5554 	 56.2093 	 132.452 	 
H 	 -89.6721 	 57.1395 	 131.583 	 
S 	 -86.5735 	 49.2727 	 129.41 	 
C 	 -84.9826 	 49.228 	 128.825 	 
C 	 -84.3763 	 50.4308 	 128.795 	 
C 	 -85.1291 	 51.45 	 129.491 	 
C 	 -86.4102 	 50.9848 	 129.922 	 
H 	 -83.4683 	 50.5923 	 128.302 	 
C 	 -84.4655 	 52.7353 	 129.844 	 
H 	 -85.2576 	 53.4289 	 130.014 	 
H 	 -84.0448 	 53.1513 	 128.974 	 
C 	 -83.5593 	 52.7595 	 131.059 	 
H 	 -83.0769 	 53.705 	 131.148 	 
H 	 -82.7312 	 52.0625 	 130.901 	 
C 	 -84.3347 	 52.4635 	 132.393 	 
H 	 -85.0568 	 51.6733 	 132.342 	 
H 	 -84.8648 	 53.3479 	 132.586 	 
H 	 -83.7991 	 52.2168 	 133.377 	 
H 	 -90.5667 	 51.8704 	 132.395 	 
H 	 -84.6705 	 48.3642 	 128.222 	 
