34

S 	 5.38548 	 -17.4094 	 84.2973 	 
C 	 4.32985 	 -18.8083 	 83.9574 	 
C 	 2.99415 	 -18.4208 	 83.868 	 
C 	 2.83266 	 -17.0249 	 83.9654 	 
C 	 3.96629 	 -16.2948 	 84.2245 	 
H 	 1.94498 	 -16.4961 	 83.8881 	 
C 	 1.8313 	 -19.3425 	 83.5158 	 
H 	 2.29024 	 -20.2283 	 82.9313 	 
H 	 1.03491 	 -19.0178 	 82.7338 	 
C 	 1.06992 	 -19.8857 	 84.7597 	 
H 	 1.83657 	 -20.2374 	 85.4453 	 
H 	 0.558948 	 -19.0975 	 85.3058 	 
C 	 0.132188 	 -21.0656 	 84.5613 	 
H 	 -0.55995 	 -21.3026 	 85.3785 	 
H 	 -0.481517 	 -20.9877 	 83.6545 	 
H 	 0.699247 	 -21.9235 	 84.2946 	 
S 	 5.47577 	 -14.0335 	 83.7549 	 
C 	 4.94096 	 -12.4569 	 84.1583 	 
C 	 3.80795 	 -12.5346 	 84.9031 	 
C 	 3.26928 	 -13.8464 	 84.956 	 
C 	 4.05113 	 -14.8334 	 84.4003 	 
H 	 3.29355 	 -11.679 	 85.2463 	 
C 	 2.02225 	 -14.0348 	 85.7976 	 
H 	 1.30761 	 -14.8196 	 85.4599 	 
H 	 1.41494 	 -13.1718 	 85.5728 	 
C 	 2.38956 	 -14.2122 	 87.3083 	 
H 	 2.65865 	 -13.2466 	 87.6992 	 
H 	 3.23962 	 -14.8684 	 87.4 	 
C 	 1.36438 	 -14.8855 	 88.1586 	 
H 	 0.355178 	 -14.4753 	 88.217 	 
H 	 1.7302 	 -14.9667 	 89.2156 	 
H 	 1.15518 	 -15.9359 	 87.74 	 
H 	 4.6418 	 -19.8594 	 83.9537 	 
H 	 5.50032 	 -11.5827 	 84.0065 	 
