34

S 	 11.3053 	 -12.0529 	 94.8005 	 
C 	 11.6678 	 -10.3545 	 94.6937 	 
C 	 10.8335 	 -9.69787 	 93.8351 	 
C 	 9.91743 	 -10.616 	 93.2017 	 
C 	 10.0799 	 -11.9171 	 93.5874 	 
H 	 9.15834 	 -10.2819 	 92.4701 	 
C 	 10.7702 	 -8.18335 	 93.6232 	 
H 	 10.2431 	 -7.91073 	 92.7266 	 
H 	 11.8656 	 -7.89273 	 93.6926 	 
C 	 10.0424 	 -7.43281 	 94.8586 	 
H 	 9.9098 	 -6.37368 	 94.5505 	 
H 	 9.04458 	 -7.9507 	 95.0082 	 
C 	 10.8047 	 -7.39134 	 96.2157 	 
H 	 10.7288 	 -8.32443 	 96.7866 	 
H 	 11.8031 	 -7.15514 	 96.2568 	 
H 	 10.3839 	 -6.62303 	 96.9076 	 
S 	 10.4047 	 -14.2947 	 92.2826 	 
C 	 8.99085 	 -15.1454 	 91.7295 	 
C 	 7.82113 	 -14.5837 	 91.9468 	 
C 	 8.02354 	 -13.319 	 92.635 	 
C 	 9.35939 	 -13.0396 	 92.992 	 
H 	 6.89369 	 -15.0838 	 91.6792 	 
C 	 6.87471 	 -12.3838 	 92.945 	 
H 	 6.70679 	 -11.752 	 92.0735 	 
H 	 7.37882 	 -11.7418 	 93.7344 	 
C 	 5.61543 	 -12.8792 	 93.699 	 
H 	 6.05697 	 -13.6971 	 94.3917 	 
H 	 4.90154 	 -13.3457 	 93.0717 	 
C 	 4.79025 	 -11.7863 	 94.4964 	 
H 	 4.10774 	 -12.2137 	 95.1884 	 
H 	 4.06255 	 -11.1397 	 93.9009 	 
H 	 5.43267 	 -11.1682 	 95.0602 	 
H 	 12.4458 	 -9.78097 	 95.1739 	 
H 	 8.98474 	 -16.0949 	 91.1827 	 
