34

S 	 -73.2851 	 47.0066 	 139.284 	 
C 	 -72.1895 	 45.8271 	 138.509 	 
C 	 -71.3043 	 46.4776 	 137.675 	 
C 	 -71.6312 	 47.9068 	 137.538 	 
C 	 -72.7305 	 48.2932 	 138.247 	 
H 	 -71.0524 	 48.5055 	 136.851 	 
C 	 -70.0963 	 45.8613 	 137.066 	 
H 	 -69.9936 	 46.2981 	 136.1 	 
H 	 -70.2539 	 44.8291 	 136.959 	 
C 	 -68.8472 	 45.9559 	 137.884 	 
H 	 -68.8919 	 46.8445 	 138.566 	 
H 	 -68.9096 	 45.026 	 138.577 	 
C 	 -67.4908 	 45.8253 	 137.172 	 
H 	 -67.4058 	 46.455 	 136.32 	 
H 	 -66.7387 	 45.9351 	 137.914 	 
H 	 -67.4238 	 44.7569 	 136.852 	 
S 	 -75.0207 	 49.5745 	 137.535 	 
C 	 -75.1525 	 51.2584 	 137.379 	 
C 	 -73.947 	 51.8962 	 137.757 	 
C 	 -72.9851 	 50.9323 	 138.235 	 
C 	 -73.4013 	 49.5744 	 138.152 	 
H 	 -73.6963 	 52.9786 	 137.742 	 
C 	 -71.5973 	 51.4197 	 138.345 	 
H 	 -71.5171 	 52.5018 	 138.237 	 
H 	 -71.0937 	 51.1548 	 137.42 	 
C 	 -70.7736 	 51.065 	 139.593 	 
H 	 -70.5913 	 50.0055 	 139.516 	 
H 	 -71.3804 	 51.1575 	 140.51 	 
C 	 -69.3789 	 51.885 	 139.88 	 
H 	 -68.6019 	 51.6879 	 139.144 	 
H 	 -68.9709 	 51.4847 	 140.808 	 
H 	 -69.4618 	 52.9141 	 140.026 	 
H 	 -71.9205 	 44.8886 	 138.915 	 
H 	 -76.0403 	 51.7037 	 136.925 	 
