34

S 	 -35.2608 	 60.2394 	 112.582 	 
C 	 -36.6864 	 61.0956 	 112.999 	 
C 	 -37.1227 	 60.9066 	 114.314 	 
C 	 -36.249 	 59.9882 	 114.982 	 
C 	 -35.2512 	 59.5194 	 114.132 	 
H 	 -36.2722 	 59.6192 	 116.006 	 
C 	 -38.4432 	 61.4088 	 114.922 	 
H 	 -39.2103 	 61.5006 	 114.211 	 
H 	 -38.3417 	 62.3936 	 115.4 	 
C 	 -39.191 	 60.4781 	 115.906 	 
H 	 -39.2911 	 59.4996 	 115.417 	 
H 	 -38.6197 	 60.2624 	 116.801 	 
C 	 -40.4874 	 60.9737 	 116.487 	 
H 	 -41.2944 	 60.8619 	 115.777 	 
H 	 -40.8723 	 60.4856 	 117.341 	 
H 	 -40.4899 	 62.0673 	 116.588 	 
S 	 -33.6747 	 57.4052 	 113.327 	 
C 	 -32.2738 	 57.0166 	 114.307 	 
C 	 -32.3594 	 57.5905 	 115.607 	 
C 	 -33.4488 	 58.5052 	 115.728 	 
C 	 -34.1988 	 58.6115 	 114.539 	 
H 	 -31.6462 	 57.3079 	 116.377 	 
C 	 -33.6661 	 59.3158 	 116.969 	 
H 	 -34.0353 	 60.3567 	 116.937 	 
H 	 -32.6636 	 59.4489 	 117.443 	 
C 	 -34.3508 	 58.5229 	 118.094 	 
H 	 -33.684 	 57.8067 	 118.647 	 
H 	 -35.2607 	 58.035 	 117.617 	 
C 	 -34.9502 	 59.3964 	 119.223 	 
H 	 -35.9171 	 59.9029 	 118.914 	 
H 	 -34.2445 	 60.0541 	 119.521 	 
H 	 -35.263 	 58.8026 	 120.129 	 
H 	 -37.4488 	 61.5335 	 112.325 	 
H 	 -31.5848 	 56.2085 	 114.225 	 
