34

S 	 9.97464 	 -3.14358 	 85.7028 	 
C 	 9.86497 	 -1.4996 	 86.3274 	 
C 	 8.58771 	 -1.03756 	 86.4259 	 
C 	 7.71528 	 -1.94499 	 85.7218 	 
C 	 8.22226 	 -3.20605 	 85.4265 	 
H 	 6.60707 	 -1.73692 	 85.4252 	 
C 	 8.2105 	 0.380627 	 86.6376 	 
H 	 7.21307 	 0.61932 	 86.3295 	 
H 	 8.77092 	 1.11014 	 86.0538 	 
C 	 8.36376 	 0.849615 	 88.1358 	 
H 	 8.38095 	 1.98553 	 88.1203 	 
H 	 7.52028 	 0.500506 	 88.6973 	 
C 	 9.57714 	 0.453334 	 88.9834 	 
H 	 9.333 	 -0.525119 	 89.4926 	 
H 	 10.5797 	 0.351524 	 88.4795 	 
H 	 9.68321 	 1.23685 	 89.8112 	 
S 	 8.01692 	 -4.30226 	 82.9246 	 
C 	 6.9419 	 -5.65145 	 82.6879 	 
C 	 6.23264 	 -5.97301 	 83.8512 	 
C 	 6.664 	 -5.21034 	 84.9576 	 
C 	 7.62378 	 -4.27156 	 84.6313 	 
H 	 5.44762 	 -6.63226 	 83.8402 	 
C 	 6.14003 	 -5.3837 	 86.3394 	 
H 	 5.45362 	 -4.58851 	 86.5695 	 
H 	 6.95559 	 -5.3609 	 87.0756 	 
C 	 5.41529 	 -6.78097 	 86.5805 	 
H 	 5.93514 	 -7.5777 	 86.0671 	 
H 	 4.43185 	 -6.70649 	 86.0725 	 
C 	 5.24634 	 -7.04268 	 88.0808 	 
H 	 4.83249 	 -8.06771 	 88.1761 	 
H 	 4.41405 	 -6.44354 	 88.5827 	 
H 	 6.16183 	 -7.03352 	 88.5917 	 
H 	 10.7788 	 -1.00854 	 86.5723 	 
H 	 6.72613 	 -6.02816 	 81.6905 	 
