34

S 	 -48.1782 	 59.7053 	 130.648 	 
C 	 -47.6911 	 59.4268 	 128.925 	 
C 	 -48.6293 	 60.0453 	 128.043 	 
C 	 -49.7111 	 60.6034 	 128.717 	 
C 	 -49.6021 	 60.5624 	 130.129 	 
H 	 -50.4932 	 61.1791 	 128.278 	 
C 	 -48.458 	 59.8036 	 126.513 	 
H 	 -48.7533 	 58.8023 	 126.283 	 
H 	 -47.4112 	 59.9404 	 126.269 	 
C 	 -49.275 	 60.836 	 125.731 	 
H 	 -50.3522 	 60.5709 	 125.756 	 
H 	 -49.1859 	 61.8916 	 126.146 	 
C 	 -48.9111 	 60.9794 	 124.24 	 
H 	 -47.9001 	 60.8196 	 123.923 	 
H 	 -49.4615 	 60.1977 	 123.594 	 
H 	 -49.1578 	 62.0078 	 123.912 	 
S 	 -51.0997 	 60.0345 	 132.331 	 
C 	 -52.2093 	 61.1652 	 132.914 	 
C 	 -52.1551 	 62.288 	 132.138 	 
C 	 -51.1185 	 62.3216 	 131.158 	 
C 	 -50.4869 	 61.1546 	 131.107 	 
H 	 -52.9041 	 62.9818 	 132.239 	 
C 	 -50.9297 	 63.5312 	 130.159 	 
H 	 -51.7689 	 64.1374 	 130.241 	 
H 	 -50.7781 	 63.2372 	 129.102 	 
C 	 -49.9607 	 64.582 	 130.629 	 
H 	 -50.1982 	 64.8709 	 131.654 	 
H 	 -50.1239 	 65.4794 	 129.986 	 
C 	 -48.4432 	 64.2708 	 130.59 	 
H 	 -48.3011 	 63.5474 	 131.425 	 
H 	 -47.8496 	 65.2193 	 130.763 	 
H 	 -48.1458 	 63.7968 	 129.662 	 
H 	 -47.0744 	 58.7005 	 128.689 	 
H 	 -53.0142 	 60.8803 	 133.569 	 
