34

S 	 -35.8445 	 46.4772 	 95.9005 	 
C 	 -37.1888 	 46.5897 	 97.0241 	 
C 	 -36.7231 	 46.6141 	 98.3313 	 
C 	 -35.3026 	 46.5254 	 98.4143 	 
C 	 -34.6307 	 46.4518 	 97.1967 	 
H 	 -34.8783 	 46.6737 	 99.4347 	 
C 	 -37.5505 	 46.4779 	 99.5623 	 
H 	 -38.5671 	 46.8015 	 99.4865 	 
H 	 -37.1393 	 47.1926 	 100.299 	 
C 	 -37.7116 	 45.1077 	 100.032 	 
H 	 -37.7349 	 44.4541 	 99.1093 	 
H 	 -36.8643 	 44.6174 	 100.503 	 
C 	 -38.9196 	 44.855 	 100.885 	 
H 	 -39.0241 	 43.824 	 101.23 	 
H 	 -38.7805 	 45.5051 	 101.716 	 
H 	 -39.8861 	 45.164 	 100.39 	 
S 	 -32.2807 	 45.7065 	 98.3914 	 
C 	 -30.8491 	 45.6814 	 97.4487 	 
C 	 -31.0545 	 46.0671 	 96.1289 	 
C 	 -32.3913 	 46.4503 	 95.8765 	 
C 	 -33.1998 	 46.3088 	 96.9756 	 
H 	 -30.1903 	 46.1623 	 95.466 	 
C 	 -32.7744 	 47.06 	 94.5794 	 
H 	 -32.0756 	 47.7062 	 94.1855 	 
H 	 -33.6138 	 47.6762 	 94.7748 	 
C 	 -33.1477 	 46.0873 	 93.4467 	 
H 	 -33.8006 	 46.6535 	 92.7893 	 
H 	 -33.7545 	 45.3434 	 93.8943 	 
C 	 -31.9726 	 45.4082 	 92.6392 	 
H 	 -31.3428 	 44.8053 	 93.1973 	 
H 	 -31.2829 	 46.1397 	 92.0937 	 
H 	 -32.5353 	 44.7767 	 91.8897 	 
H 	 -38.1475 	 46.3561 	 96.768 	 
H 	 -29.8147 	 45.4344 	 97.7065 	 
