34

S 	 -40.0253 	 58.2121 	 103.207 	 
C 	 -41.4669 	 59.0176 	 102.697 	 
C 	 -42.165 	 58.2291 	 101.773 	 
C 	 -41.6381 	 56.8975 	 101.676 	 
C 	 -40.5199 	 56.6881 	 102.405 	 
H 	 -42.0303 	 56.0385 	 101.104 	 
C 	 -43.3033 	 58.7052 	 100.973 	 
H 	 -42.8711 	 58.6665 	 99.9505 	 
H 	 -43.5305 	 59.8135 	 101.085 	 
C 	 -44.5696 	 57.8765 	 100.969 	 
H 	 -45.2284 	 58.2566 	 100.253 	 
H 	 -44.1635 	 56.9368 	 100.54 	 
C 	 -45.2474 	 57.654 	 102.324 	 
H 	 -45.6459 	 58.5934 	 102.702 	 
H 	 -46.0626 	 57.0035 	 102.219 	 
H 	 -44.6134 	 57.217 	 103.057 	 
S 	 -38.0139 	 55.7202 	 101.859 	 
C 	 -37.749 	 53.9991 	 102.002 	 
C 	 -38.8932 	 53.2964 	 102.403 	 
C 	 -39.9896 	 54.0902 	 102.603 	 
C 	 -39.6454 	 55.4776 	 102.498 	 
H 	 -38.8319 	 52.2249 	 102.564 	 
C 	 -41.3376 	 53.5509 	 103.171 	 
H 	 -42.0793 	 54.3718 	 103.17 	 
H 	 -41.1999 	 53.2335 	 104.212 	 
C 	 -41.9515 	 52.3872 	 102.315 	 
H 	 -41.184 	 51.561 	 102.272 	 
H 	 -42.0686 	 52.765 	 101.302 	 
C 	 -43.3067 	 51.9286 	 102.696 	 
H 	 -44.0005 	 52.754 	 102.822 	 
H 	 -43.2222 	 51.3268 	 103.565 	 
H 	 -43.7696 	 51.2955 	 101.916 	 
H 	 -41.746 	 60.0002 	 103.051 	 
H 	 -36.7867 	 53.4755 	 101.95 	 
