34

S 	 -25.7746 	 44.9664 	 58.5109 	 
C 	 -25.9826 	 46.6206 	 59.2263 	 
C 	 -24.7587 	 47.2361 	 59.1018 	 
C 	 -23.6782 	 46.3526 	 58.7583 	 
C 	 -24.0438 	 45.1267 	 58.3446 	 
H 	 -22.6258 	 46.7028 	 58.67 	 
C 	 -24.6371 	 48.7021 	 59.3865 	 
H 	 -25.1936 	 49.336 	 58.6873 	 
H 	 -23.5703 	 48.8922 	 59.2138 	 
C 	 -25.1392 	 49.082 	 60.8236 	 
H 	 -25.3534 	 50.1042 	 60.8989 	 
H 	 -26.0662 	 48.596 	 61.0162 	 
C 	 -24.1561 	 48.694 	 61.9505 	 
H 	 -23.2326 	 49.2771 	 61.9521 	 
H 	 -24.6426 	 48.6748 	 62.9251 	 
H 	 -23.8974 	 47.647 	 61.8328 	 
S 	 -23.8276 	 42.3747 	 58.7609 	 
C 	 -22.3712 	 41.6162 	 58.3044 	 
C 	 -21.6328 	 42.4064 	 57.4696 	 
C 	 -22.1313 	 43.7697 	 57.3369 	 
C 	 -23.2936 	 43.9394 	 58.0587 	 
H 	 -20.6835 	 41.9921 	 57.0708 	 
C 	 -21.2476 	 44.781 	 56.5172 	 
H 	 -20.1404 	 44.612 	 56.4969 	 
H 	 -21.4278 	 45.7494 	 57.0348 	 
C 	 -21.7083 	 45.0815 	 55.0837 	 
H 	 -21.29 	 45.9333 	 54.6148 	 
H 	 -22.6928 	 45.3503 	 55.1533 	 
C 	 -21.5524 	 43.8903 	 54.1783 	 
H 	 -22.0838 	 43.9422 	 53.2177 	 
H 	 -21.9574 	 43.0203 	 54.6863 	 
H 	 -20.5812 	 43.6973 	 53.7873 	 
H 	 -26.8627 	 47.0089 	 59.6528 	 
H 	 -22.0518 	 40.6325 	 58.623 	 
