34

S 	 36.0824 	 21.8193 	 51.6566 	 
C 	 35.4797 	 22.6148 	 53.1071 	 
C 	 34.428 	 21.9823 	 53.7354 	 
C 	 34.1507 	 20.7953 	 53.0509 	 
C 	 34.9906 	 20.4875 	 51.9541 	 
H 	 33.3817 	 20.0472 	 53.311 	 
C 	 33.7015 	 22.3191 	 55.0374 	 
H 	 34.2053 	 23.2011 	 55.5253 	 
H 	 33.7524 	 21.6074 	 55.8017 	 
C 	 32.1671 	 22.6609 	 55.024 	 
H 	 31.8731 	 23.0204 	 56.0111 	 
H 	 31.9384 	 23.563 	 54.4719 	 
C 	 31.2879 	 21.5604 	 54.3725 	 
H 	 31.6369 	 21.4989 	 53.348 	 
H 	 31.4511 	 20.5716 	 54.7987 	 
H 	 30.2794 	 21.7842 	 54.5591 	 
S 	 33.718 	 19.1512 	 49.8922 	 
C 	 34.2974 	 17.5828 	 49.4275 	 
C 	 35.3017 	 17.1025 	 50.2342 	 
C 	 35.66 	 18.0472 	 51.267 	 
C 	 34.9235 	 19.2577 	 51.1739 	 
H 	 35.8058 	 16.1775 	 50.1023 	 
C 	 36.7471 	 17.7802 	 52.2383 	 
H 	 36.7855 	 16.7773 	 52.6943 	 
H 	 36.3924 	 18.4427 	 53.0477 	 
C 	 38.0905 	 18.2167 	 51.7162 	 
H 	 38.1757 	 19.2882 	 51.5495 	 
H 	 38.2457 	 17.7706 	 50.7536 	 
C 	 39.2384 	 17.7459 	 52.666 	 
H 	 39.0806 	 18.2261 	 53.5868 	 
H 	 40.1502 	 18.0486 	 52.154 	 
H 	 39.1139 	 16.7105 	 52.9681 	 
H 	 35.6182 	 23.6909 	 53.2571 	 
H 	 33.9277 	 17.0504 	 48.5909 	 
