34

S 	 1.18276 	 2.0279 	 84.2098 	 
C 	 0.273494 	 0.741729 	 83.4547 	 
C 	 -0.663268 	 1.15081 	 82.493 	 
C 	 -0.676699 	 2.66027 	 82.5361 	 
C 	 0.144046 	 3.21485 	 83.4051 	 
H 	 -1.38465 	 3.21053 	 81.9013 	 
C 	 -1.51957 	 0.31217 	 81.5347 	 
H 	 -0.906203 	 -0.530706 	 81.3031 	 
H 	 -1.70998 	 0.763212 	 80.6224 	 
C 	 -2.89304 	 -0.103435 	 82.1484 	 
H 	 -2.66666 	 -0.831747 	 82.9637 	 
H 	 -3.37191 	 0.681388 	 82.7049 	 
C 	 -3.9178 	 -0.593338 	 81.1258 	 
H 	 -4.81773 	 -1.09929 	 81.5515 	 
H 	 -4.24967 	 0.204587 	 80.4368 	 
H 	 -3.3623 	 -1.38831 	 80.531 	 
S 	 2.31269 	 5.00409 	 83.6876 	 
C 	 1.90143 	 6.6632 	 83.654 	 
C 	 0.5591 	 6.88069 	 83.517 	 
C 	 -0.25225 	 5.7354 	 83.3653 	 
C 	 0.510305 	 4.58117 	 83.4408 	 
H 	 0.252703 	 7.88654 	 83.4851 	 
C 	 -1.73303 	 5.83898 	 83.1968 	 
H 	 -1.97096 	 5.35143 	 82.2187 	 
H 	 -2.02504 	 6.86491 	 83.1198 	 
C 	 -2.62415 	 5.14035 	 84.284 	 
H 	 -2.57725 	 4.11846 	 84.0315 	 
H 	 -3.67199 	 5.39777 	 84.2085 	 
C 	 -2.16811 	 5.24798 	 85.7433 	 
H 	 -1.12583 	 4.88914 	 85.9415 	 
H 	 -2.7404 	 4.77846 	 86.53 	 
H 	 -2.16998 	 6.27446 	 86.0818 	 
H 	 0.619979 	 -0.212824 	 83.7407 	 
H 	 2.56053 	 7.545 	 83.6293 	 
