34

S 	 -41.1688 	 36.5885 	 75.6902 	 
C 	 -41.9771 	 36.5718 	 77.2055 	 
C 	 -41.0826 	 36.4213 	 78.2508 	 
C 	 -39.7567 	 36.2211 	 77.739 	 
C 	 -39.6133 	 36.0578 	 76.2956 	 
H 	 -38.83 	 36.1788 	 78.2774 	 
C 	 -41.3825 	 36.3285 	 79.7511 	 
H 	 -40.5675 	 36.6832 	 80.3824 	 
H 	 -41.6248 	 35.2778 	 79.9385 	 
C 	 -42.7313 	 37.0593 	 80.1819 	 
H 	 -43.5654 	 36.492 	 79.8383 	 
H 	 -42.9002 	 37.1134 	 81.2785 	 
C 	 -42.7616 	 38.5434 	 79.77 	 
H 	 -41.8502 	 39.1036 	 79.9037 	 
H 	 -42.9872 	 38.696 	 78.6559 	 
H 	 -43.608 	 38.9674 	 80.3331 	 
S 	 -38.1296 	 37.3366 	 74.3426 	 
C 	 -36.5402 	 36.7529 	 73.9002 	 
C 	 -36.1983 	 35.5961 	 74.6301 	 
C 	 -37.1957 	 35.1973 	 75.5693 	 
C 	 -38.3562 	 36.005 	 75.4921 	 
H 	 -35.1317 	 35.2802 	 74.5613 	 
C 	 -37.0535 	 33.9162 	 76.3542 	 
H 	 -37.3216 	 34.0826 	 77.4324 	 
H 	 -36.0343 	 33.4268 	 76.2833 	 
C 	 -37.9235 	 32.7761 	 75.7813 	 
H 	 -38.9228 	 33.0422 	 75.4842 	 
H 	 -38.0192 	 31.9122 	 76.503 	 
C 	 -37.2566 	 32.0803 	 74.6141 	 
H 	 -36.6446 	 32.7963 	 74.0607 	 
H 	 -37.9313 	 31.6325 	 73.9403 	 
H 	 -36.5409 	 31.3404 	 75.0735 	 
H 	 -42.9932 	 36.5528 	 77.352 	 
H 	 -35.8449 	 37.2323 	 73.1259 	 
