34

S 	 -41.6923 	 27.0231 	 89.0401 	 
C 	 -41.403 	 28.0747 	 90.4602 	 
C 	 -42.013 	 29.3018 	 90.3268 	 
C 	 -42.6954 	 29.4118 	 89.0476 	 
C 	 -42.5194 	 28.3202 	 88.1951 	 
H 	 -43.1222 	 30.2681 	 88.5651 	 
C 	 -42.0953 	 30.5094 	 91.2782 	 
H 	 -42.5148 	 30.1658 	 92.2428 	 
H 	 -42.6722 	 31.3011 	 90.985 	 
C 	 -40.7484 	 31.0638 	 91.6674 	 
H 	 -40.7868 	 31.7862 	 92.5361 	 
H 	 -40.1012 	 30.2241 	 92.0111 	 
C 	 -40.0378 	 31.6329 	 90.4501 	 
H 	 -39.9146 	 30.905 	 89.6451 	 
H 	 -40.4195 	 32.5714 	 90.0647 	 
H 	 -39.0163 	 31.9031 	 90.7006 	 
S 	 -44.4324 	 26.8281 	 86.7372 	 
C 	 -44.4594 	 27.1191 	 85.0686 	 
C 	 -43.6324 	 28.097 	 84.6288 	 
C 	 -42.8933 	 28.7037 	 85.651 	 
C 	 -43.1626 	 28.0931 	 86.8682 	 
H 	 -43.6333 	 28.3254 	 83.5753 	 
C 	 -41.8336 	 29.8149 	 85.3481 	 
H 	 -41.2857 	 29.5457 	 84.4961 	 
H 	 -41.1722 	 29.7573 	 86.1625 	 
C 	 -42.3813 	 31.2676 	 85.3076 	 
H 	 -41.5081 	 31.9309 	 85.2859 	 
H 	 -42.8573 	 31.5801 	 86.2056 	 
C 	 -43.3299 	 31.5647 	 84.1074 	 
H 	 -42.7671 	 32.294 	 83.4932 	 
H 	 -44.161 	 32.0627 	 84.6304 	 
H 	 -43.663 	 30.659 	 83.5524 	 
H 	 -40.9303 	 27.7684 	 91.3718 	 
H 	 -45.1413 	 26.5599 	 84.4407 	 
