34

S 	 -92.6555 	 54.7346 	 126.884 	 
C 	 -91.1548 	 53.8386 	 126.491 	 
C 	 -91.4553 	 52.743 	 125.634 	 
C 	 -92.9234 	 52.513 	 125.56 	 
C 	 -93.6501 	 53.4968 	 126.182 	 
H 	 -93.4521 	 51.5997 	 125.255 	 
C 	 -90.4379 	 51.8268 	 124.915 	 
H 	 -89.5449 	 52.286 	 124.549 	 
H 	 -90.8402 	 51.4469 	 123.976 	 
C 	 -89.9969 	 50.6035 	 125.687 	 
H 	 -90.8754 	 50.2464 	 126.315 	 
H 	 -89.737 	 49.7952 	 124.996 	 
C 	 -88.8742 	 50.9386 	 126.743 	 
H 	 -87.9555 	 51.2675 	 126.293 	 
H 	 -89.1795 	 51.7074 	 127.431 	 
H 	 -88.6546 	 50.1556 	 127.419 	 
S 	 -95.8685 	 53.8213 	 127.706 	 
C 	 -97.4357 	 54.2701 	 126.936 	 
C 	 -97.2118 	 54.4976 	 125.583 	 
C 	 -95.8675 	 54.2879 	 125.186 	 
C 	 -95.0754 	 53.7035 	 126.17 	 
H 	 -97.9689 	 54.884 	 124.935 	 
C 	 -95.3893 	 54.595 	 123.82 	 
H 	 -96.1484 	 54.2085 	 123.194 	 
H 	 -94.517 	 53.987 	 123.778 	 
C 	 -95.043 	 55.9814 	 123.428 	 
H 	 -94.1468 	 56.2735 	 123.98 	 
H 	 -95.9205 	 56.6529 	 123.56 	 
C 	 -94.7415 	 56.1243 	 121.906 	 
H 	 -94.8407 	 57.1599 	 121.729 	 
H 	 -95.2986 	 55.4267 	 121.295 	 
H 	 -93.6951 	 55.7712 	 121.769 	 
H 	 -90.144 	 54.1198 	 126.678 	 
H 	 -98.3905 	 54.4292 	 127.407 	 
