34

S 	 -100.179 	 38.119 	 126.684 	 
C 	 -99.4037 	 37.2457 	 128.057 	 
C 	 -98.1308 	 37.6621 	 128.28 	 
C 	 -97.6717 	 38.5543 	 127.187 	 
C 	 -98.6843 	 38.9162 	 126.334 	 
H 	 -96.6525 	 38.7766 	 126.963 	 
C 	 -97.2028 	 37.2101 	 129.359 	 
H 	 -97.661 	 36.3113 	 129.786 	 
H 	 -97.1691 	 37.925 	 130.205 	 
C 	 -95.7471 	 36.9484 	 128.913 	 
H 	 -95.8485 	 36.4042 	 128.005 	 
H 	 -95.2043 	 37.8979 	 128.622 	 
C 	 -95.0355 	 36.1377 	 129.935 	 
H 	 -95.6616 	 35.3915 	 130.433 	 
H 	 -94.1555 	 35.6562 	 129.637 	 
H 	 -94.7048 	 36.7984 	 130.733 	 
S 	 -99.2125 	 39.3552 	 123.691 	 
C 	 -98.8525 	 40.8853 	 122.917 	 
C 	 -98.2572 	 41.771 	 123.787 	 
C 	 -97.9971 	 41.1587 	 125.071 	 
C 	 -98.5621 	 39.9256 	 125.264 	 
H 	 -97.9375 	 42.7069 	 123.392 	 
C 	 -97.362 	 41.9479 	 126.232 	 
H 	 -96.441 	 42.414 	 125.903 	 
H 	 -96.996 	 41.1772 	 126.939 	 
C 	 -98.31 	 42.9377 	 126.849 	 
H 	 -98.5587 	 43.5589 	 125.963 	 
H 	 -97.8055 	 43.5917 	 127.577 	 
C 	 -99.5811 	 42.3831 	 127.409 	 
H 	 -100.028 	 41.545 	 126.832 	 
H 	 -100.318 	 43.1834 	 127.346 	 
H 	 -99.5151 	 42.1949 	 128.478 	 
H 	 -99.8696 	 36.4734 	 128.623 	 
H 	 -98.9129 	 41.0798 	 121.924 	 
