34

S 	 -93.5843 	 58.2996 	 129.823 	 
C 	 -92.8446 	 59.9076 	 129.894 	 
C 	 -93.7776 	 60.8771 	 130.339 	 
C 	 -95.0712 	 60.3511 	 130.568 	 
C 	 -95.1342 	 58.9828 	 130.315 	 
H 	 -95.8994 	 60.8876 	 130.972 	 
C 	 -93.4097 	 62.3267 	 130.631 	 
H 	 -92.4418 	 62.4068 	 131.083 	 
H 	 -94.1568 	 62.8776 	 131.241 	 
C 	 -93.5064 	 63.1938 	 129.362 	 
H 	 -92.9338 	 62.6651 	 128.63 	 
H 	 -94.546 	 63.2103 	 129.026 	 
C 	 -92.8932 	 64.684 	 129.621 	 
H 	 -92.7684 	 65.2406 	 128.657 	 
H 	 -93.2407 	 65.3465 	 130.458 	 
H 	 -91.8944 	 64.5624 	 129.925 	 
S 	 -95.9207 	 56.4608 	 131.079 	 
C 	 -97.6331 	 56.1002 	 131.207 	 
C 	 -98.4657 	 57.1672 	 131.003 	 
C 	 -97.7384 	 58.3195 	 130.626 	 
C 	 -96.3382 	 58.1302 	 130.514 	 
H 	 -99.5701 	 57.1234 	 131.047 	 
C 	 -98.4937 	 59.6407 	 130.447 	 
H 	 -99.3813 	 59.5557 	 129.865 	 
H 	 -97.8227 	 60.2371 	 129.905 	 
C 	 -98.7589 	 60.6597 	 131.668 	 
H 	 -97.9197 	 60.8327 	 132.279 	 
H 	 -99.4269 	 60.073 	 132.395 	 
C 	 -99.5673 	 61.916 	 131.307 	 
H 	 -100.547 	 61.5735 	 130.861 	 
H 	 -99.036 	 62.4047 	 130.465 	 
H 	 -99.7838 	 62.636 	 132.135 	 
H 	 -91.8359 	 60.1149 	 129.585 	 
H 	 -97.9113 	 55.0916 	 131.334 	 
