34

S 	 -102.442 	 46.2451 	 117.9 	 
C 	 -104.098 	 46.433 	 118.511 	 
C 	 -104.339 	 47.8187 	 118.622 	 
C 	 -103.322 	 48.5837 	 117.899 	 
C 	 -102.168 	 47.9399 	 117.54 	 
H 	 -103.409 	 49.6533 	 117.679 	 
C 	 -105.648 	 48.3245 	 119.102 	 
H 	 -106.096 	 47.6044 	 119.762 	 
H 	 -106.301 	 48.2581 	 118.201 	 
C 	 -105.74 	 49.6281 	 119.874 	 
H 	 -105.012 	 49.5194 	 120.705 	 
H 	 -105.353 	 50.4674 	 119.253 	 
C 	 -107.246 	 49.9382 	 120.11 	 
H 	 -107.489 	 50.9343 	 120.494 	 
H 	 -107.806 	 49.9423 	 119.203 	 
H 	 -107.731 	 49.1324 	 120.672 	 
S 	 -100.638 	 47.4044 	 115.292 	 
C 	 -99.3741 	 48.5691 	 114.919 	 
C 	 -99.3841 	 49.6529 	 115.727 	 
C 	 -100.342 	 49.6423 	 116.817 	 
C 	 -101.069 	 48.4444 	 116.724 	 
H 	 -98.5851 	 50.3415 	 115.614 	 
C 	 -100.521 	 50.7965 	 117.799 	 
H 	 -99.5738 	 51.1997 	 118.065 	 
H 	 -100.867 	 50.4267 	 118.8 	 
C 	 -101.421 	 51.9269 	 117.44 	 
H 	 -101.75 	 52.4974 	 118.332 	 
H 	 -102.375 	 51.5016 	 117.108 	 
C 	 -100.92 	 52.8455 	 116.303 	 
H 	 -100.724 	 52.2314 	 115.415 	 
H 	 -99.9748 	 53.3528 	 116.681 	 
H 	 -101.695 	 53.6043 	 116.092 	 
H 	 -104.784 	 45.6204 	 118.85 	 
H 	 -98.6583 	 48.4033 	 114.087 	 
