34

S 	 -68.7961 	 39.3471 	 125.22 	 
C 	 -69.511 	 40.9538 	 125.132 	 
C 	 -68.8237 	 41.8176 	 124.365 	 
C 	 -67.6909 	 41.1574 	 123.791 	 
C 	 -67.5087 	 39.8533 	 124.177 	 
H 	 -67.0029 	 41.5681 	 123.147 	 
C 	 -69.3097 	 43.2306 	 124.121 	 
H 	 -70.3557 	 43.3843 	 124.545 	 
H 	 -69.4893 	 43.3265 	 123.052 	 
C 	 -68.4535 	 44.3325 	 124.677 	 
H 	 -68.4537 	 44.3119 	 125.767 	 
H 	 -67.4108 	 44.3324 	 124.389 	 
C 	 -68.9127 	 45.7367 	 124.454 	 
H 	 -68.2656 	 46.5129 	 124.961 	 
H 	 -68.8787 	 45.8812 	 123.394 	 
H 	 -69.8915 	 45.9725 	 124.812 	 
S 	 -67.4322 	 37.7335 	 122.503 	 
C 	 -65.9257 	 37.0555 	 122.022 	 
C 	 -64.8487 	 37.6399 	 122.684 	 
C 	 -65.301 	 38.737 	 123.478 	 
C 	 -66.7014 	 38.8382 	 123.617 	 
H 	 -63.8621 	 37.3349 	 122.499 	 
C 	 -64.285 	 39.6094 	 124.198 	 
H 	 -63.8642 	 38.9911 	 124.941 	 
H 	 -64.7054 	 40.4278 	 124.777 	 
C 	 -63.1686 	 40.1193 	 123.235 	 
H 	 -62.5226 	 39.3688 	 122.853 	 
H 	 -62.4881 	 40.7804 	 123.889 	 
C 	 -63.5969 	 40.9663 	 122.087 	 
H 	 -63.6696 	 40.2917 	 121.254 	 
H 	 -62.7572 	 41.5873 	 121.666 	 
H 	 -64.3923 	 41.6722 	 122.249 	 
H 	 -70.3339 	 41.2743 	 125.804 	 
H 	 -65.7681 	 36.4724 	 121.122 	 
