34

S 	 -73.2078 	 35.3222 	 124.587 	 
C 	 -72.3159 	 34.2122 	 123.652 	 
C 	 -71.487 	 34.8075 	 122.722 	 
C 	 -71.6597 	 36.2438 	 122.649 	 
C 	 -72.5478 	 36.7121 	 123.612 	 
H 	 -71.0429 	 36.8565 	 122.06 	 
C 	 -70.6293 	 34.0085 	 121.795 	 
H 	 -70.5297 	 34.5576 	 120.873 	 
H 	 -71.215 	 33.1369 	 121.618 	 
C 	 -69.1698 	 33.7275 	 122.117 	 
H 	 -68.9262 	 32.896 	 121.471 	 
H 	 -68.5852 	 34.6475 	 122.004 	 
C 	 -68.777 	 33.1233 	 123.529 	 
H 	 -67.7766 	 32.7292 	 123.61 	 
H 	 -68.7656 	 33.9633 	 124.275 	 
H 	 -69.4606 	 32.345 	 123.817 	 
S 	 -74.6878 	 38.4476 	 124.172 	 
C 	 -74.3416 	 40.1051 	 124.271 	 
C 	 -73.0412 	 40.4589 	 124.072 	 
C 	 -72.2064 	 39.279 	 123.86 	 
C 	 -72.9337 	 38.1078 	 123.877 	 
H 	 -72.6506 	 41.4846 	 124.229 	 
C 	 -70.7244 	 39.3975 	 123.782 	 
H 	 -70.5451 	 40.4417 	 123.756 	 
H 	 -70.399 	 38.9771 	 122.833 	 
C 	 -69.9844 	 38.605 	 124.835 	 
H 	 -70.2438 	 37.5186 	 124.859 	 
H 	 -70.4449 	 39.0994 	 125.749 	 
C 	 -68.4122 	 38.7475 	 124.907 	 
H 	 -67.9445 	 38.6096 	 123.9 	 
H 	 -67.9676 	 37.9095 	 125.54 	 
H 	 -68.0305 	 39.6568 	 125.378 	 
H 	 -72.2416 	 33.1736 	 123.923 	 
H 	 -75.0586 	 40.8074 	 124.64 	 
