34

S 	 -1.06674 	 47.2374 	 34.0113 	 
C 	 -1.13237 	 46.3227 	 35.4693 	 
C 	 -0.0386078 	 45.5265 	 35.636 	 
C 	 0.926228 	 45.6937 	 34.6016 	 
C 	 0.512912 	 46.6742 	 33.7285 	 
H 	 1.94127 	 45.2232 	 34.4485 	 
C 	 0.213482 	 44.7303 	 36.9717 	 
H 	 0.806648 	 43.8814 	 36.6754 	 
H 	 -0.806834 	 44.4934 	 37.4059 	 
C 	 1.04449 	 45.4821 	 37.9758 	 
H 	 1.73716 	 46.1752 	 37.4668 	 
H 	 0.340114 	 45.9916 	 38.6589 	 
C 	 1.8275 	 44.6101 	 38.9366 	 
H 	 1.24929 	 44.0694 	 39.6095 	 
H 	 2.41189 	 43.845 	 38.4944 	 
H 	 2.60462 	 45.174 	 39.5594 	 
S 	 0.752492 	 47.2824 	 30.9941 	 
C 	 2.14997 	 48.1377 	 30.4779 	 
C 	 3.12988 	 48.2184 	 31.4627 	 
C 	 2.68433 	 47.7147 	 32.7256 	 
C 	 1.35992 	 47.1877 	 32.6848 	 
H 	 4.1116 	 48.6221 	 31.3463 	 
C 	 3.41881 	 47.9242 	 34.0312 	 
H 	 4.39493 	 48.2559 	 33.7481 	 
H 	 3.69267 	 46.9243 	 34.4724 	 
C 	 2.74593 	 48.9166 	 35.1024 	 
H 	 3.53542 	 48.9679 	 35.8621 	 
H 	 1.82412 	 48.4138 	 35.4033 	 
C 	 2.35304 	 50.2998 	 34.4427 	 
H 	 2.07135 	 50.9673 	 35.2414 	 
H 	 1.41448 	 50.2239 	 33.9274 	 
H 	 3.0396 	 50.8377 	 33.833 	 
H 	 -1.97877 	 46.2031 	 36.1349 	 
H 	 2.41911 	 48.4208 	 29.4214 	 
