34

S 	 9.57389 	 21.3751 	 41.9605 	 
C 	 9.64713 	 19.6563 	 42.1574 	 
C 	 10.4754 	 19.3195 	 43.2395 	 
C 	 11.0694 	 20.4742 	 43.871 	 
C 	 10.5988 	 21.6951 	 43.3299 	 
H 	 11.8875 	 20.3807 	 44.5168 	 
C 	 10.7726 	 17.9485 	 43.7522 	 
H 	 11.8308 	 17.8891 	 43.6453 	 
H 	 10.3467 	 17.2287 	 42.998 	 
C 	 10.3782 	 17.5904 	 45.1755 	 
H 	 9.59748 	 18.2329 	 45.5526 	 
H 	 9.96811 	 16.5275 	 45.2572 	 
C 	 11.3929 	 17.8491 	 46.3081 	 
H 	 12.3925 	 17.5583 	 45.9691 	 
H 	 11.401 	 18.9759 	 46.512 	 
H 	 11.1775 	 17.4045 	 47.2409 	 
S 	 10.8533 	 23.6832 	 45.1939 	 
C 	 11.7273 	 25.1823 	 44.831 	 
C 	 12.2468 	 25.0885 	 43.5711 	 
C 	 11.8386 	 23.9172 	 42.8413 	 
C 	 11.0834 	 23.0201 	 43.637 	 
H 	 12.8289 	 25.8287 	 43.2402 	 
C 	 12.2799 	 23.8115 	 41.4103 	 
H 	 11.5587 	 23.1676 	 40.88 	 
H 	 13.2383 	 23.277 	 41.4626 	 
C 	 12.3728 	 25.1435 	 40.645 	 
H 	 13.0716 	 25.8733 	 41.156 	 
H 	 11.4021 	 25.6375 	 40.6385 	 
C 	 12.7639 	 24.8237 	 39.1592 	 
H 	 12.0984 	 24.133 	 38.6953 	 
H 	 13.7383 	 24.366 	 39.034 	 
H 	 12.7714 	 25.7993 	 38.6601 	 
H 	 9.24807 	 18.8361 	 41.5843 	 
H 	 12.018 	 25.9349 	 45.5635 	 
