34

S 	 6.14834 	 -28.1919 	 77.0297 	 
C 	 4.88593 	 -29.3754 	 77.2806 	 
C 	 4.9629 	 -30.0538 	 78.4853 	 
C 	 6.22379 	 -29.5833 	 79.0724 	 
C 	 6.91462 	 -28.5553 	 78.4906 	 
H 	 6.62211 	 -30.1339 	 79.8921 	 
C 	 4.25168 	 -31.2937 	 78.9109 	 
H 	 4.67043 	 -32.1656 	 78.506 	 
H 	 3.35491 	 -31.1718 	 78.4258 	 
C 	 3.94691 	 -31.4715 	 80.3803 	 
H 	 3.17628 	 -32.2219 	 80.4838 	 
H 	 4.67521 	 -32.0093 	 81.0136 	 
C 	 3.38777 	 -30.289 	 81.1357 	 
H 	 3.22254 	 -30.6023 	 82.1239 	 
H 	 4.04404 	 -29.3972 	 81.1575 	 
H 	 2.34508 	 -30.0175 	 80.8135 	 
S 	 8.05823 	 -27.1567 	 80.635 	 
C 	 9.62574 	 -26.3519 	 80.4094 	 
C 	 10.1985 	 -26.8284 	 79.2347 	 
C 	 9.34526 	 -27.6918 	 78.462 	 
C 	 8.11006 	 -27.9532 	 79.0214 	 
H 	 11.221 	 -26.6447 	 79.011 	 
C 	 9.8498 	 -28.2405 	 77.1172 	 
H 	 10.015 	 -27.4166 	 76.4296 	 
H 	 9.06867 	 -28.8493 	 76.6354 	 
C 	 11.1059 	 -29.0711 	 77.1034 	 
H 	 11.0352 	 -29.8923 	 77.8241 	 
H 	 12.0662 	 -28.6227 	 77.4105 	 
C 	 11.4182 	 -29.7019 	 75.7446 	 
H 	 12.4456 	 -29.6244 	 75.5831 	 
H 	 10.9784 	 -29.1594 	 74.9336 	 
H 	 11.0606 	 -30.698 	 75.6645 	 
H 	 4.19756 	 -29.695 	 76.5278 	 
H 	 10.2044 	 -25.8619 	 81.1563 	 
