34

S 	 3.5084 	 13.0325 	 49.0305 	 
C 	 3.25608 	 12.4076 	 47.4269 	 
C 	 3.13248 	 13.3466 	 46.4334 	 
C 	 3.03191 	 14.5959 	 46.9567 	 
C 	 3.21392 	 14.675 	 48.3512 	 
H 	 2.87514 	 15.4971 	 46.4438 	 
C 	 2.99707 	 12.9837 	 44.9784 	 
H 	 2.0208 	 13.2572 	 44.6914 	 
H 	 2.933 	 11.9197 	 44.8122 	 
C 	 3.86124 	 13.7032 	 43.9478 	 
H 	 3.39373 	 14.6458 	 43.7603 	 
H 	 4.88464 	 13.7478 	 44.3885 	 
C 	 3.9629 	 12.9632 	 42.5908 	 
H 	 4.47591 	 13.5094 	 41.752 	 
H 	 4.3326 	 11.8666 	 42.7181 	 
H 	 3.01417 	 12.9574 	 42.0774 	 
S 	 2.40323 	 15.6864 	 50.7667 	 
C 	 2.60171 	 17.404 	 51.1171 	 
C 	 3.05788 	 18.0358 	 50.0082 	 
C 	 3.21888 	 17.2145 	 48.8826 	 
C 	 3.06206 	 15.8466 	 49.157 	 
H 	 3.1484 	 19.1022 	 50.1279 	 
C 	 3.8074 	 17.7458 	 47.5723 	 
H 	 4.32846 	 16.9715 	 47.0034 	 
H 	 4.56455 	 18.508 	 47.8047 	 
C 	 2.78913 	 18.4694 	 46.704 	 
H 	 2.41124 	 19.2378 	 47.3846 	 
H 	 1.90826 	 17.856 	 46.4527 	 
C 	 3.23623 	 19.0557 	 45.4272 	 
H 	 4.18718 	 19.5933 	 45.5883 	 
H 	 2.51784 	 19.7555 	 44.9445 	 
H 	 3.39114 	 18.3056 	 44.6356 	 
H 	 3.45806 	 11.3356 	 47.2672 	 
H 	 2.29658 	 17.8969 	 52.0279 	 
