34

S 	 -39.4989 	 39.6505 	 94.6602 	 
C 	 -41.0783 	 40.2585 	 94.075 	 
C 	 -42.1392 	 39.4561 	 94.481 	 
C 	 -41.6733 	 38.4697 	 95.3561 	 
C 	 -40.35 	 38.515 	 95.6739 	 
H 	 -42.2145 	 37.6785 	 95.8057 	 
C 	 -43.5191 	 39.599 	 94.0991 	 
H 	 -44.0505 	 38.6402 	 94.1094 	 
H 	 -43.5086 	 39.9916 	 93.0682 	 
C 	 -44.2686 	 40.6394 	 94.8485 	 
H 	 -44.2103 	 40.2379 	 95.9054 	 
H 	 -43.9123 	 41.6186 	 94.729 	 
C 	 -45.7593 	 40.6154 	 94.5307 	 
H 	 -45.9723 	 40.9978 	 93.4919 	 
H 	 -46.1636 	 39.6738 	 94.7252 	 
H 	 -46.3019 	 41.2473 	 95.2801 	 
S 	 -38.0871 	 37.1098 	 95.9488 	 
C 	 -37.7558 	 36.298 	 97.4727 	 
C 	 -38.8792 	 36.3202 	 98.2853 	 
C 	 -39.9763 	 37.0373 	 97.7606 	 
C 	 -39.6841 	 37.5836 	 96.5447 	 
H 	 -38.7651 	 35.7321 	 99.1846 	 
C 	 -41.2957 	 37.1253 	 98.482 	 
H 	 -41.7399 	 38.137 	 98.4072 	 
H 	 -41.0783 	 37.2706 	 99.595 	 
C 	 -42.2856 	 35.9626 	 98.3446 	 
H 	 -41.9193 	 35.0476 	 98.7724 	 
H 	 -42.4953 	 35.8181 	 97.2723 	 
C 	 -43.684 	 36.1348 	 98.9995 	 
H 	 -43.6274 	 36.5871 	 99.9684 	 
H 	 -44.1836 	 35.1099 	 98.9309 	 
H 	 -44.2826 	 36.8827 	 98.4638 	 
H 	 -41.0918 	 41.1907 	 93.4585 	 
H 	 -36.8594 	 35.7624 	 97.7191 	 
