34

S 	 -112.301 	 54.219 	 109.003 	 
C 	 -110.895 	 53.989 	 107.983 	 
C 	 -109.722 	 53.8184 	 108.706 	 
C 	 -109.889 	 54.129 	 110.115 	 
C 	 -111.191 	 54.2314 	 110.464 	 
H 	 -109.141 	 54.2079 	 110.889 	 
C 	 -108.372 	 53.6621 	 108.037 	 
H 	 -108.584 	 52.9003 	 107.299 	 
H 	 -107.679 	 53.2997 	 108.776 	 
C 	 -107.764 	 54.9337 	 107.517 	 
H 	 -106.817 	 54.795 	 107.043 	 
H 	 -108.525 	 55.399 	 106.913 	 
C 	 -107.518 	 56.0644 	 108.47 	 
H 	 -106.904 	 55.7481 	 109.272 	 
H 	 -106.991 	 56.8505 	 107.929 	 
H 	 -108.446 	 56.495 	 108.78 	 
S 	 -112.588 	 56.0719 	 111.761 	 
C 	 -112.847 	 56.023 	 113.454 	 
C 	 -112.231 	 54.9187 	 114.008 	 
C 	 -111.526 	 54.1303 	 113.07 	 
C 	 -111.663 	 54.6373 	 111.775 	 
H 	 -112.266 	 54.6523 	 115.073 	 
C 	 -111.111 	 52.7342 	 113.41 	 
H 	 -110.228 	 52.6583 	 114.093 	 
H 	 -110.914 	 52.1613 	 112.46 	 
C 	 -112.116 	 51.8458 	 114.183 	 
H 	 -112.08 	 51.9432 	 115.209 	 
H 	 -111.894 	 50.7762 	 114.043 	 
C 	 -113.559 	 51.9435 	 113.811 	 
H 	 -113.573 	 51.5618 	 112.746 	 
H 	 -114.024 	 52.9358 	 113.954 	 
H 	 -114.221 	 51.3338 	 114.457 	 
H 	 -110.957 	 53.9096 	 106.918 	 
H 	 -112.993 	 56.9107 	 114.04 	 
