34

S 	 -61.0361 	 57.4826 	 126.383 	 
C 	 -62.7955 	 57.6867 	 126.46 	 
C 	 -63.4242 	 56.9398 	 125.524 	 
C 	 -62.5237 	 56.1272 	 124.815 	 
C 	 -61.2258 	 56.351 	 125.102 	 
H 	 -62.718 	 55.429 	 124.022 	 
C 	 -64.9024 	 56.9264 	 125.317 	 
H 	 -65.1987 	 57.3107 	 124.316 	 
H 	 -65.2547 	 57.6342 	 126.058 	 
C 	 -65.5987 	 55.5236 	 125.618 	 
H 	 -65.7747 	 55.0509 	 124.686 	 
H 	 -65.0237 	 54.8893 	 126.249 	 
C 	 -67.0161 	 55.6713 	 126.365 	 
H 	 -67.3108 	 54.6488 	 126.57 	 
H 	 -66.9287 	 56.1161 	 127.38 	 
H 	 -67.756 	 56.2189 	 125.754 	 
S 	 -58.9269 	 56.8094 	 123.506 	 
C 	 -57.9621 	 55.3744 	 122.998 	 
C 	 -58.5603 	 54.1714 	 123.434 	 
C 	 -59.6944 	 54.4386 	 124.236 	 
C 	 -60.0439 	 55.8048 	 124.402 	 
H 	 -58.1452 	 53.2729 	 123.138 	 
C 	 -60.4399 	 53.2406 	 124.767 	 
H 	 -60.3017 	 52.4791 	 124.038 	 
H 	 -61.4933 	 53.4885 	 124.634 	 
C 	 -60.0165 	 52.8664 	 126.173 	 
H 	 -60.2082 	 53.8199 	 126.696 	 
H 	 -58.9556 	 52.7766 	 126.252 	 
C 	 -60.9213 	 51.6671 	 126.76 	 
H 	 -61.861 	 52.0424 	 127.162 	 
H 	 -60.3913 	 51.1418 	 127.592 	 
H 	 -61.1163 	 50.9193 	 126.042 	 
H 	 -63.3241 	 58.4601 	 126.997 	 
H 	 -57.023 	 55.4953 	 122.403 	 
