34

S 	 -59.5597 	 35.3997 	 119.156 	 
C 	 -61.3291 	 35.2449 	 118.95 	 
C 	 -61.7103 	 35.1962 	 117.659 	 
C 	 -60.6283 	 35.3328 	 116.771 	 
C 	 -59.3843 	 35.267 	 117.366 	 
H 	 -60.5895 	 35.3375 	 115.654 	 
C 	 -63.117 	 35.2686 	 117.105 	 
H 	 -63.1759 	 36.3286 	 116.742 	 
H 	 -63.9463 	 35.0872 	 117.881 	 
C 	 -63.3512 	 34.356 	 115.88 	 
H 	 -64.2384 	 34.6031 	 115.331 	 
H 	 -62.5476 	 34.7184 	 115.227 	 
C 	 -63.3751 	 32.8244 	 116.369 	 
H 	 -64.0525 	 32.6257 	 117.195 	 
H 	 -63.5293 	 32.1529 	 115.519 	 
H 	 -62.4384 	 32.5165 	 116.817 	 
S 	 -57.3918 	 37.0407 	 117.081 	 
C 	 -56.1136 	 36.6223 	 116.007 	 
C 	 -56.362 	 35.5365 	 115.273 	 
C 	 -57.476 	 34.8597 	 115.697 	 
C 	 -58.1082 	 35.4931 	 116.762 	 
H 	 -55.7005 	 35.2053 	 114.462 	 
C 	 -58.0796 	 33.6194 	 114.983 	 
H 	 -58.9295 	 33.2127 	 115.535 	 
H 	 -57.3177 	 32.9037 	 115.165 	 
C 	 -58.3875 	 33.6611 	 113.478 	 
H 	 -59.0549 	 32.7758 	 113.15 	 
H 	 -57.4108 	 33.5494 	 113.018 	 
C 	 -59.0493 	 34.9382 	 112.996 	 
H 	 -58.9554 	 34.9907 	 111.942 	 
H 	 -58.5173 	 35.7684 	 113.446 	 
H 	 -60.071 	 35.0338 	 113.308 	 
H 	 -62.0065 	 35.2433 	 119.766 	 
H 	 -55.3752 	 37.3033 	 115.691 	 
