34

S 	 6.09598 	 19.9031 	 52.6279 	 
C 	 4.9833 	 19.259 	 53.8143 	 
C 	 4.81725 	 17.8643 	 53.6448 	 
C 	 5.57598 	 17.3779 	 52.5745 	 
C 	 6.17941 	 18.3606 	 51.8475 	 
H 	 5.659 	 16.3633 	 52.2595 	 
C 	 3.9819 	 16.9936 	 54.4643 	 
H 	 3.33498 	 16.3356 	 53.9385 	 
H 	 3.48137 	 17.7336 	 55.0974 	 
C 	 4.76285 	 15.9493 	 55.2544 	 
H 	 5.39543 	 15.3203 	 54.5437 	 
H 	 5.57565 	 16.5343 	 55.738 	 
C 	 4.01833 	 15.0935 	 56.1967 	 
H 	 3.44779 	 15.6494 	 56.9424 	 
H 	 3.12555 	 14.5697 	 55.7502 	 
H 	 4.59171 	 14.3242 	 56.6361 	 
S 	 8.4939 	 18.3643 	 50.5761 	 
C 	 8.71651 	 17.7733 	 48.963 	 
C 	 7.49662 	 17.5009 	 48.4338 	 
C 	 6.36503 	 17.6679 	 49.3304 	 
C 	 6.78298 	 18.1769 	 50.558 	 
H 	 7.47302 	 17.1516 	 47.4532 	 
C 	 4.91049 	 17.3173 	 49.0162 	 
H 	 4.20661 	 17.3802 	 49.8921 	 
H 	 4.96388 	 16.1807 	 48.8419 	 
C 	 4.25418 	 18.0726 	 47.8396 	 
H 	 3.20222 	 17.7835 	 47.9001 	 
H 	 4.65093 	 17.873 	 46.932 	 
C 	 4.26109 	 19.6495 	 48.0224 	 
H 	 3.63069 	 20.135 	 47.2618 	 
H 	 5.32231 	 19.9752 	 47.9031 	 
H 	 3.79708 	 19.9106 	 49.0374 	 
H 	 4.60769 	 19.968 	 54.618 	 
H 	 9.53971 	 17.9125 	 48.3502 	 
