34

S 	 -41.0282 	 17.9608 	 82.6836 	 
C 	 -41.1667 	 16.5744 	 81.5931 	 
C 	 -41.8608 	 16.9627 	 80.4368 	 
C 	 -42.2012 	 18.3857 	 80.3559 	 
C 	 -41.9391 	 19.0283 	 81.5762 	 
H 	 -42.6471 	 18.9353 	 79.562 	 
C 	 -42.0342 	 16.0452 	 79.16 	 
H 	 -41.2996 	 15.2784 	 79.2768 	 
H 	 -41.7283 	 16.5158 	 78.2126 	 
C 	 -43.4734 	 15.4879 	 79.0327 	 
H 	 -43.5007 	 15.0372 	 78.0602 	 
H 	 -43.6039 	 14.7735 	 79.7278 	 
C 	 -44.5867 	 16.5183 	 79.1295 	 
H 	 -44.4688 	 17.0291 	 80.0424 	 
H 	 -44.6293 	 17.2419 	 78.2911 	 
H 	 -45.5581 	 15.9548 	 79.0845 	 
S 	 -40.9192 	 21.4989 	 81.1242 	 
C 	 -41.6262 	 22.8879 	 81.9158 	 
C 	 -42.815 	 22.6115 	 82.5315 	 
C 	 -43.1254 	 21.2247 	 82.5221 	 
C 	 -42.1374 	 20.4557 	 81.8745 	 
H 	 -43.4547 	 23.3546 	 82.9781 	 
C 	 -44.3348 	 20.6744 	 83.1408 	 
H 	 -44.6548 	 19.757 	 82.6678 	 
H 	 -44.919 	 21.4979 	 82.8083 	 
C 	 -44.3745 	 20.3673 	 84.5754 	 
H 	 -43.5758 	 19.6822 	 84.8039 	 
H 	 -45.1933 	 19.7972 	 84.9079 	 
C 	 -44.3115 	 21.6764 	 85.366 	 
H 	 -45.0458 	 22.3701 	 85.0247 	 
H 	 -43.3383 	 22.2454 	 85.2005 	 
H 	 -44.4552 	 21.5725 	 86.4534 	 
H 	 -40.7437 	 15.5619 	 81.7038 	 
H 	 -41.2022 	 23.8704 	 81.6747 	 
