34

S 	 54.9918 	 27.3217 	 42.0633 	 
C 	 56.6901 	 27.4297 	 42.4856 	 
C 	 57.1275 	 26.3316 	 43.1597 	 
C 	 56.0788 	 25.3754 	 43.3781 	 
C 	 54.8961 	 25.651 	 42.7068 	 
H 	 56.1098 	 24.5514 	 44.0536 	 
C 	 58.5289 	 26.0703 	 43.6378 	 
H 	 59.127 	 25.8562 	 42.846 	 
H 	 58.5009 	 25.179 	 44.3231 	 
C 	 59.1467 	 27.2474 	 44.4817 	 
H 	 60.2401 	 27.2534 	 44.6891 	 
H 	 59.1156 	 28.1037 	 43.8101 	 
C 	 58.4358 	 27.5077 	 45.7824 	 
H 	 57.4112 	 27.8983 	 45.7498 	 
H 	 58.4668 	 26.6382 	 46.5168 	 
H 	 59.0557 	 28.2417 	 46.2928 	 
S 	 52.2237 	 25.4208 	 43.0161 	 
C 	 51.3845 	 23.945 	 42.7563 	 
C 	 52.2824 	 23.0053 	 42.2773 	 
C 	 53.6425 	 23.4447 	 42.2449 	 
C 	 53.8117 	 24.767 	 42.5402 	 
H 	 51.8562 	 22.013 	 42.0928 	 
C 	 54.7815 	 22.4601 	 41.8723 	 
H 	 55.5643 	 23.0792 	 41.3447 	 
H 	 54.2851 	 21.8551 	 41.0308 	 
C 	 55.3696 	 21.5043 	 42.933 	 
H 	 54.6855 	 20.7031 	 43.215 	 
H 	 55.563 	 22.1838 	 43.8023 	 
C 	 56.7118 	 20.8261 	 42.5726 	 
H 	 56.4925 	 19.7549 	 42.5554 	 
H 	 57.4718 	 20.9263 	 43.3446 	 
H 	 57.0293 	 21.0796 	 41.6433 	 
H 	 57.4248 	 28.0986 	 42.0558 	 
H 	 50.3172 	 23.8144 	 42.8288 	 
