34

S 	 -79.4269 	 51.6488 	 137.554 	 
C 	 -80.9293 	 50.9848 	 137.016 	 
C 	 -81.4228 	 51.74 	 135.944 	 
C 	 -80.5544 	 52.7475 	 135.458 	 
C 	 -79.4046 	 52.7364 	 136.096 	 
H 	 -80.7021 	 53.4082 	 134.533 	 
C 	 -82.821 	 51.4472 	 135.449 	 
H 	 -83.0804 	 50.4275 	 135.678 	 
H 	 -82.9039 	 51.6294 	 134.368 	 
C 	 -83.9522 	 52.2554 	 136.118 	 
H 	 -83.9236 	 52.1614 	 137.225 	 
H 	 -83.9361 	 53.335 	 135.89 	 
C 	 -85.3813 	 51.7184 	 135.666 	 
H 	 -85.5487 	 50.6354 	 135.522 	 
H 	 -86.1513 	 52.0718 	 136.42 	 
H 	 -85.6044 	 52.2783 	 134.769 	 
S 	 -77.6375 	 53.6714 	 134.281 	 
C 	 -76.6148 	 54.9941 	 134.678 	 
C 	 -76.6744 	 55.4052 	 136.018 	 
C 	 -77.6145 	 54.6074 	 136.75 	 
C 	 -78.3401 	 53.6886 	 135.883 	 
H 	 -76.0124 	 56.0851 	 136.434 	 
C 	 -77.9936 	 54.9484 	 138.184 	 
H 	 -77.2276 	 54.4987 	 138.812 	 
H 	 -79.0213 	 54.5577 	 138.433 	 
C 	 -78.1023 	 56.3859 	 138.619 	 
H 	 -77.2352 	 56.937 	 138.453 	 
H 	 -78.2211 	 56.4384 	 139.668 	 
C 	 -79.3654 	 57.0837 	 138.085 	 
H 	 -79.4101 	 58.113 	 138.377 	 
H 	 -80.332 	 56.6069 	 138.425 	 
H 	 -79.3882 	 57.261 	 136.969 	 
H 	 -81.3823 	 50.1988 	 137.577 	 
H 	 -75.8958 	 55.3307 	 133.949 	 
