34

S 	 -3.14139 	 -11.4318 	 79.0753 	 
C 	 -4.73448 	 -11.405 	 78.5435 	 
C 	 -5.46895 	 -12.5125 	 78.925 	 
C 	 -4.64567 	 -13.435 	 79.6551 	 
C 	 -3.38554 	 -12.9285 	 79.999 	 
H 	 -5.01636 	 -14.3946 	 80.0375 	 
C 	 -6.9657 	 -12.6994 	 78.8824 	 
H 	 -7.20183 	 -13.8047 	 78.6308 	 
H 	 -7.38868 	 -11.9996 	 78.1782 	 
C 	 -7.55768 	 -12.3967 	 80.3324 	 
H 	 -7.20941 	 -13.1478 	 81.069 	 
H 	 -7.15121 	 -11.5011 	 80.7319 	 
C 	 -9.08609 	 -12.2603 	 80.4617 	 
H 	 -9.30367 	 -12.27 	 81.5226 	 
H 	 -9.43918 	 -11.2968 	 80.0874 	 
H 	 -9.5619 	 -13.175 	 80.0836 	 
S 	 -2.11264 	 -15.2588 	 80.4688 	 
C 	 -1.08044 	 -15.27 	 81.8112 	 
C 	 -0.911829 	 -14.0629 	 82.473 	 
C 	 -1.58506 	 -13.0145 	 81.816 	 
C 	 -2.36717 	 -13.5562 	 80.7736 	 
H 	 -0.188657 	 -13.9683 	 83.2654 	 
C 	 -1.38513 	 -11.4946 	 82.055 	 
H 	 -1.12481 	 -10.9634 	 81.1284 	 
H 	 -0.481755 	 -11.4498 	 82.6985 	 
C 	 -2.52646 	 -10.74 	 82.7958 	 
H 	 -3.27415 	 -10.6264 	 82.0687 	 
H 	 -2.17883 	 -9.69397 	 82.9731 	 
C 	 -3.08541 	 -11.3652 	 84.1101 	 
H 	 -3.29266 	 -12.3573 	 83.9678 	 
H 	 -3.98556 	 -10.7985 	 84.5094 	 
H 	 -2.33364 	 -11.2872 	 84.8792 	 
H 	 -5.20603 	 -10.5172 	 78.1112 	 
H 	 -0.564225 	 -16.218 	 82.2375 	 
