34

S 	 -113.321 	 54.5224 	 107.792 	 
C 	 -112.663 	 53.1435 	 106.996 	 
C 	 -111.744 	 52.4544 	 107.742 	 
C 	 -111.568 	 52.9715 	 109.032 	 
C 	 -112.331 	 54.0911 	 109.255 	 
H 	 -110.891 	 52.6682 	 109.804 	 
C 	 -110.982 	 51.2686 	 107.302 	 
H 	 -111.503 	 50.3471 	 107.725 	 
H 	 -109.996 	 51.1681 	 107.727 	 
C 	 -110.719 	 51.0956 	 105.789 	 
H 	 -109.968 	 50.2951 	 105.567 	 
H 	 -111.617 	 50.8263 	 105.276 	 
C 	 -110.132 	 52.3515 	 104.998 	 
H 	 -109.247 	 52.8636 	 105.445 	 
H 	 -109.736 	 52.03 	 104.022 	 
H 	 -110.851 	 53.1258 	 104.756 	 
S 	 -110.731 	 55.9531 	 110.698 	 
C 	 -111.365 	 56.6545 	 112.149 	 
C 	 -112.668 	 56.3542 	 112.317 	 
C 	 -113.195 	 55.4667 	 111.345 	 
C 	 -112.284 	 55.06 	 110.347 	 
H 	 -113.291 	 56.6121 	 113.176 	 
C 	 -114.522 	 54.7429 	 111.503 	 
H 	 -115.088 	 54.9136 	 110.536 	 
H 	 -115.062 	 55.1562 	 112.258 	 
C 	 -114.398 	 53.2865 	 112.032 	 
H 	 -113.904 	 52.6954 	 111.293 	 
H 	 -115.425 	 52.8927 	 112.06 	 
C 	 -113.783 	 53.2533 	 113.45 	 
H 	 -112.746 	 53.7227 	 113.423 	 
H 	 -113.76 	 52.272 	 113.819 	 
H 	 -114.334 	 53.8789 	 114.126 	 
H 	 -112.951 	 52.844 	 105.977 	 
H 	 -110.814 	 57.277 	 112.812 	 
