34

S 	 -48.7062 	 9.85368 	 80.0303 	 
C 	 -48.704 	 10.7968 	 81.4971 	 
C 	 -49.6845 	 10.4822 	 82.3755 	 
C 	 -50.2024 	 9.14241 	 82.0819 	 
C 	 -49.8622 	 8.74284 	 80.7855 	 
H 	 -50.8992 	 8.66229 	 82.7523 	 
C 	 -50.0805 	 11.271 	 83.636 	 
H 	 -51.1774 	 11.2633 	 83.6801 	 
H 	 -49.8797 	 12.333 	 83.5157 	 
C 	 -49.5213 	 10.7604 	 84.9233 	 
H 	 -49.6482 	 11.4652 	 85.7742 	 
H 	 -50.1973 	 9.94728 	 85.2535 	 
C 	 -48.0311 	 10.3471 	 84.8396 	 
H 	 -47.8138 	 9.74692 	 85.6739 	 
H 	 -47.7674 	 9.77223 	 83.9551 	 
H 	 -47.4105 	 11.2576 	 84.8889 	 
S 	 -48.7699 	 6.59791 	 79.8446 	 
C 	 -49.6399 	 5.40967 	 78.9119 	 
C 	 -51 	 5.60812 	 79.0104 	 
C 	 -51.3023 	 6.75408 	 79.8482 	 
C 	 -50.1742 	 7.45456 	 80.2441 	 
H 	 -51.6001 	 4.94221 	 78.3325 	 
C 	 -52.7644 	 7.25229 	 79.9712 	 
H 	 -53.3316 	 7.06185 	 79.0605 	 
H 	 -52.5519 	 8.30834 	 80.0355 	 
C 	 -53.4904 	 6.72415 	 81.2219 	 
H 	 -52.7025 	 6.8774 	 81.9534 	 
H 	 -53.7142 	 5.66242 	 81.0913 	 
C 	 -54.6712 	 7.61069 	 81.6583 	 
H 	 -55.0693 	 7.33451 	 82.6199 	 
H 	 -55.4108 	 7.69875 	 80.8326 	 
H 	 -54.3586 	 8.64385 	 81.8168 	 
H 	 -48.2535 	 11.77 	 81.5881 	 
H 	 -49.222 	 4.70124 	 78.2039 	 
