34

S 	 -47.6131 	 63.6544 	 144.05 	 
C 	 -46.4486 	 62.5129 	 144.606 	 
C 	 -45.9375 	 61.7281 	 143.531 	 
C 	 -46.523 	 62.1896 	 142.305 	 
C 	 -47.3786 	 63.2826 	 142.381 	 
H 	 -46.1897 	 61.7928 	 141.351 	 
C 	 -44.867 	 60.617 	 143.634 	 
H 	 -44.4236 	 60.5033 	 142.619 	 
H 	 -45.3978 	 59.7236 	 144.058 	 
C 	 -43.8049 	 60.9623 	 144.715 	 
H 	 -43.434 	 62.0007 	 144.712 	 
H 	 -44.2571 	 60.7479 	 145.743 	 
C 	 -42.6953 	 59.8407 	 144.66 	 
H 	 -42.0607 	 59.9746 	 145.569 	 
H 	 -43.1677 	 58.8309 	 144.601 	 
H 	 -42.041 	 59.8618 	 143.764 	 
S 	 -49.7583 	 64.3352 	 141.571 	 
C 	 -50.0435 	 64.9058 	 139.911 	 
C 	 -48.881 	 64.6257 	 139.2 	 
C 	 -47.7842 	 64.1431 	 139.997 	 
C 	 -48.0855 	 63.97 	 141.312 	 
H 	 -48.8213 	 64.7448 	 138.151 	 
C 	 -46.3954 	 63.9371 	 139.349 	 
H 	 -45.6294 	 63.7986 	 140.144 	 
H 	 -46.0658 	 64.7903 	 138.755 	 
C 	 -46.419 	 62.7902 	 138.346 	 
H 	 -47.0385 	 63.0548 	 137.496 	 
H 	 -46.8573 	 61.9399 	 138.852 	 
C 	 -44.993 	 62.4682 	 137.765 	 
H 	 -44.8764 	 63.0767 	 136.86 	 
H 	 -44.8066 	 61.5005 	 137.426 	 
H 	 -44.2768 	 62.6598 	 138.581 	 
H 	 -46.1444 	 62.2327 	 145.629 	 
H 	 -50.9087 	 65.2528 	 139.465 	 
