34

S 	 -79.4554 	 43.6572 	 124.015 	 
C 	 -80.9442 	 43.0264 	 123.356 	 
C 	 -80.774 	 42.9225 	 121.948 	 
C 	 -79.5744 	 43.563 	 121.523 	 
C 	 -78.8111 	 44.0833 	 122.5 	 
H 	 -79.2856 	 43.6497 	 120.459 	 
C 	 -81.7993 	 42.4612 	 120.96 	 
H 	 -81.857 	 43.3038 	 120.266 	 
H 	 -82.7364 	 42.4846 	 121.533 	 
C 	 -81.5669 	 41.1019 	 120.251 	 
H 	 -82.3295 	 40.9336 	 119.429 	 
H 	 -80.6095 	 41.2608 	 119.777 	 
C 	 -81.7458 	 39.9683 	 121.28 	 
H 	 -82.5646 	 40.2784 	 121.999 	 
H 	 -81.99 	 38.9999 	 120.914 	 
H 	 -80.7448 	 39.9194 	 121.733 	 
S 	 -77.8344 	 46.4471 	 121.744 	 
C 	 -76.1082 	 46.6418 	 121.703 	 
C 	 -75.4786 	 45.4209 	 121.92 	 
C 	 -76.3492 	 44.3609 	 122.281 	 
C 	 -77.6382 	 44.8353 	 122.327 	 
H 	 -74.3999 	 45.4222 	 121.981 	 
C 	 -75.8481 	 42.9633 	 122.578 	 
H 	 -76.1909 	 42.7159 	 123.604 	 
H 	 -74.79 	 42.9965 	 122.618 	 
C 	 -76.2702 	 41.7861 	 121.595 	 
H 	 -77.364 	 41.8964 	 121.499 	 
H 	 -76.1261 	 40.8196 	 122.14 	 
C 	 -75.4827 	 41.89 	 120.237 	 
H 	 -74.4197 	 41.6289 	 120.36 	 
H 	 -75.535 	 42.9067 	 119.815 	 
H 	 -75.9653 	 41.3174 	 119.502 	 
H 	 -81.8768 	 42.5666 	 123.752 	 
H 	 -75.5518 	 47.5304 	 121.443 	 
