34

S 	 45.8525 	 13.0477 	 76.4252 	 
C 	 45.3062 	 12.4764 	 78.0414 	 
C 	 45.9813 	 13.1596 	 79.0172 	 
C 	 46.8569 	 14.1477 	 78.5192 	 
C 	 46.854 	 14.2265 	 77.1633 	 
H 	 47.3327 	 14.9109 	 79.0692 	 
C 	 45.8967 	 12.8705 	 80.5531 	 
H 	 46.9387 	 13.1426 	 80.9027 	 
H 	 45.7255 	 11.7839 	 80.4591 	 
C 	 44.708 	 13.5615 	 81.3044 	 
H 	 43.758 	 13.2061 	 80.977 	 
H 	 44.7298 	 13.3331 	 82.3557 	 
C 	 44.7807 	 15.0507 	 81.2685 	 
H 	 44.856 	 15.4376 	 80.3216 	 
H 	 43.9262 	 15.4235 	 81.7725 	 
H 	 45.684 	 15.5107 	 81.6977 	 
S 	 48.9585 	 14.5266 	 75.4326 	 
C 	 49.1432 	 16.0418 	 74.5785 	 
C 	 48.4177 	 17.0333 	 75.2156 	 
C 	 47.6507 	 16.6092 	 76.3898 	 
C 	 47.6496 	 15.1786 	 76.406 	 
H 	 48.61 	 18.0364 	 74.8554 	 
C 	 46.7421 	 17.5766 	 77.1938 	 
H 	 45.9332 	 17.0026 	 77.5696 	 
H 	 46.1977 	 18.2172 	 76.4546 	 
C 	 47.3618 	 18.4233 	 78.2582 	 
H 	 47.9901 	 17.8158 	 78.9323 	 
H 	 46.5924 	 18.8323 	 78.8748 	 
C 	 48.1648 	 19.5783 	 77.7223 	 
H 	 47.5699 	 20.2835 	 77.1007 	 
H 	 48.9207 	 19.1004 	 77.114 	 
H 	 48.4663 	 20.0818 	 78.6003 	 
H 	 44.5991 	 11.6636 	 78.2079 	 
H 	 49.8249 	 16.2856 	 73.7764 	 
