34

S 	 -101.456 	 57.3105 	 120.767 	 
C 	 -100.479 	 58.7513 	 120.583 	 
C 	 -101.372 	 59.7783 	 120.364 	 
C 	 -102.714 	 59.4145 	 120.174 	 
C 	 -102.98 	 58.135 	 120.548 	 
H 	 -103.545 	 60.048 	 119.988 	 
C 	 -100.984 	 61.2553 	 120.17 	 
H 	 -100.132 	 61.5586 	 120.769 	 
H 	 -101.837 	 61.774 	 120.658 	 
C 	 -100.99 	 61.75 	 118.735 	 
H 	 -101.907 	 61.5075 	 118.23 	 
H 	 -100.924 	 62.8019 	 118.864 	 
C 	 -99.8578 	 61.2073 	 117.983 	 
H 	 -99.8592 	 61.559 	 116.962 	 
H 	 -98.9176 	 61.6089 	 118.426 	 
H 	 -99.9543 	 60.0959 	 117.979 	 
S 	 -104.688 	 56.5741 	 118.874 	 
C 	 -106.398 	 56.5029 	 119.309 	 
C 	 -106.601 	 56.9002 	 120.634 	 
C 	 -105.403 	 57.5267 	 121.17 	 
C 	 -104.275 	 57.4826 	 120.351 	 
H 	 -107.549 	 56.6916 	 121.101 	 
C 	 -105.559 	 58.24 	 122.538 	 
H 	 -104.538 	 58.1965 	 122.816 	 
H 	 -106.146 	 57.6428 	 123.203 	 
C 	 -106.13 	 59.653 	 122.563 	 
H 	 -107.182 	 59.509 	 122.359 	 
H 	 -105.717 	 60.1153 	 121.69 	 
C 	 -105.686 	 60.3993 	 123.834 	 
H 	 -105.855 	 59.8373 	 124.723 	 
H 	 -106.326 	 61.3574 	 123.905 	 
H 	 -104.684 	 60.604 	 123.834 	 
H 	 -99.3921 	 58.9065 	 120.651 	 
H 	 -107.21 	 56.1348 	 118.707 	 
