34

S 	 -70.9988 	 39.618 	 121.769 	 
C 	 -70.1649 	 40.6429 	 122.923 	 
C 	 -68.887 	 40.1995 	 123.229 	 
C 	 -68.5411 	 39.1723 	 122.278 	 
C 	 -69.6153 	 38.6535 	 121.557 	 
H 	 -67.5378 	 38.7397 	 122.33 	 
C 	 -67.8861 	 40.7516 	 124.192 	 
H 	 -68.3068 	 41.608 	 124.675 	 
H 	 -67.0023 	 41.0535 	 123.67 	 
C 	 -67.275 	 39.7822 	 125.22 	 
H 	 -68.0403 	 39.3614 	 125.787 	 
H 	 -66.8738 	 38.9547 	 124.613 	 
C 	 -66.082 	 40.4325 	 125.939 	 
H 	 -65.8095 	 39.736 	 126.738 	 
H 	 -65.2979 	 40.5832 	 125.241 	 
H 	 -66.3609 	 41.3302 	 126.348 	 
S 	 -69.7675 	 37.8043 	 118.919 	 
C 	 -69.2021 	 36.28 	 118.469 	 
C 	 -68.9091 	 35.5412 	 119.56 	 
C 	 -69.1147 	 36.2757 	 120.814 	 
C 	 -69.5707 	 37.5462 	 120.673 	 
H 	 -68.5668 	 34.4826 	 119.502 	 
C 	 -68.9906 	 35.591 	 122.124 	 
H 	 -69.6073 	 34.6942 	 122.213 	 
H 	 -69.4907 	 36.1282 	 122.885 	 
C 	 -67.5532 	 35.066 	 122.55 	 
H 	 -67.4025 	 34.0935 	 122.083 	 
H 	 -67.4957 	 34.8333 	 123.621 	 
C 	 -66.3416 	 35.8536 	 122.109 	 
H 	 -66.4391 	 36.9017 	 122.488 	 
H 	 -66.3703 	 35.9503 	 121.006 	 
H 	 -65.3497 	 35.388 	 122.44 	 
H 	 -70.5972 	 41.5689 	 123.331 	 
H 	 -69.0365 	 36.011 	 117.4 	 
