34

S 	 22.6395 	 -0.497808 	 82.0651 	 
C 	 23.843 	 0.126345 	 80.9912 	 
C 	 23.5754 	 1.48798 	 80.7944 	 
C 	 22.3329 	 1.95993 	 81.2564 	 
C 	 21.591 	 0.921803 	 81.8312 	 
H 	 21.8768 	 2.91226 	 81.2811 	 
C 	 24.5318 	 2.4237 	 80.1307 	 
H 	 24.5185 	 2.41034 	 79.0377 	 
H 	 25.4748 	 1.97303 	 80.4749 	 
C 	 24.5558 	 3.90193 	 80.6231 	 
H 	 23.6067 	 4.52995 	 80.5411 	 
H 	 24.5434 	 3.75038 	 81.6872 	 
C 	 25.8254 	 4.61704 	 80.0704 	 
H 	 26.7695 	 4.06874 	 80.2186 	 
H 	 25.8618 	 4.64815 	 78.9644 	 
H 	 25.8542 	 5.61974 	 80.5219 	 
S 	 19.9442 	 1.00669 	 84.1017 	 
C 	 18.2264 	 0.926472 	 83.8535 	 
C 	 17.8775 	 1.0101 	 82.5286 	 
C 	 18.9857 	 1.04689 	 81.6564 	 
C 	 20.1945 	 0.97042 	 82.3751 	 
H 	 16.7952 	 1.00099 	 82.2412 	 
C 	 18.8872 	 0.995145 	 80.1641 	 
H 	 19.6218 	 1.70253 	 79.7945 	 
H 	 17.9435 	 1.41052 	 79.8482 	 
C 	 19.0546 	 -0.319962 	 79.4038 	 
H 	 18.2595 	 -0.928695 	 79.9563 	 
H 	 20.0196 	 -0.759574 	 79.6368 	 
C 	 18.8231 	 -0.319478 	 77.9207 	 
H 	 19.1588 	 -1.33998 	 77.5466 	 
H 	 19.3264 	 0.463255 	 77.4429 	 
H 	 17.7717 	 -0.283678 	 77.6123 	 
H 	 24.7649 	 -0.353674 	 80.7488 	 
H 	 17.4586 	 0.769938 	 84.5987 	 
