34

S 	 -92.8447 	 57.3786 	 124.355 	 
C 	 -91.9717 	 57.0323 	 125.88 	 
C 	 -90.6059 	 56.9768 	 125.601 	 
C 	 -90.2751 	 57.2862 	 124.237 	 
C 	 -91.3859 	 57.7552 	 123.501 	 
H 	 -89.3205 	 57.4551 	 123.72 	 
C 	 -89.5385 	 56.487 	 126.551 	 
H 	 -89.8411 	 56.5032 	 127.599 	 
H 	 -88.7028 	 57.1979 	 126.508 	 
C 	 -88.9426 	 55.0287 	 126.256 	 
H 	 -89.6932 	 54.2013 	 126.373 	 
H 	 -88.5642 	 54.8333 	 125.217 	 
C 	 -87.8637 	 54.7056 	 127.201 	 
H 	 -88.151 	 54.9987 	 128.164 	 
H 	 -87.5129 	 53.6416 	 127.268 	 
H 	 -87.0196 	 55.3379 	 126.828 	 
S 	 -92.1903 	 60.144 	 122.351 	 
C 	 -92.2098 	 60.2247 	 120.591 	 
C 	 -91.6142 	 59.0888 	 120.012 	 
C 	 -91.209 	 58.1391 	 121.002 	 
C 	 -91.4688 	 58.5633 	 122.296 	 
H 	 -91.5032 	 58.9329 	 118.908 	 
C 	 -90.6116 	 56.8023 	 120.745 	 
H 	 -89.8792 	 56.4372 	 121.473 	 
H 	 -89.9245 	 56.8345 	 119.814 	 
C 	 -91.6697 	 55.581 	 120.53 	 
H 	 -92.2766 	 55.7836 	 119.641 	 
H 	 -92.3702 	 55.5073 	 121.357 	 
C 	 -90.9212 	 54.3125 	 120.263 	 
H 	 -90.618 	 54.3251 	 119.252 	 
H 	 -91.6268 	 53.4842 	 120.228 	 
H 	 -90.0976 	 54.1223 	 120.934 	 
H 	 -92.3228 	 56.5987 	 126.763 	 
H 	 -92.507 	 61.0757 	 120.02 	 
