34

S 	 39.8163 	 10.1661 	 77.5831 	 
C 	 40.7174 	 8.77073 	 76.9719 	 
C 	 42.0453 	 8.96822 	 77.3187 	 
C 	 42.2236 	 9.96206 	 78.3052 	 
C 	 41.1714 	 10.8116 	 78.4853 	 
H 	 43.1204 	 10.1927 	 78.7741 	 
C 	 43.1767 	 8.1513 	 76.8538 	 
H 	 42.8211 	 7.42863 	 76.1134 	 
H 	 43.3858 	 7.45598 	 77.6824 	 
C 	 44.5137 	 8.86423 	 76.4432 	 
H 	 44.9738 	 9.40689 	 77.3231 	 
H 	 45.3086 	 8.24774 	 76.1587 	 
C 	 44.3664 	 9.88946 	 75.3198 	 
H 	 43.5373 	 10.6427 	 75.4937 	 
H 	 45.2968 	 10.2968 	 74.9817 	 
H 	 43.9701 	 9.25981 	 74.4878 	 
S 	 42.0254 	 13.4122 	 78.645 	 
C 	 41.5268 	 14.4124 	 79.9902 	 
C 	 40.8001 	 13.6946 	 80.8738 	 
C 	 40.4877 	 12.3831 	 80.3911 	 
C 	 41.1481 	 12.0177 	 79.2337 	 
H 	 40.4085 	 14.1507 	 81.7887 	 
C 	 39.5831 	 11.3788 	 81.0955 	 
H 	 38.8358 	 11.0424 	 80.3907 	 
H 	 39.031 	 11.923 	 81.9525 	 
C 	 40.2534 	 10.051 	 81.679 	 
H 	 40.7966 	 9.54501 	 80.9604 	 
H 	 39.434 	 9.3882 	 82.0735 	 
C 	 41.1844 	 10.354 	 82.8666 	 
H 	 42.1283 	 10.8766 	 82.6004 	 
H 	 41.4498 	 9.33775 	 83.2268 	 
H 	 40.7498 	 10.9771 	 83.604 	 
H 	 40.4216 	 7.96778 	 76.2968 	 
H 	 41.8748 	 15.3514 	 80.1655 	 
