34

S 	 -54.176 	 39.0861 	 107.894 	 
C 	 -53.5801 	 38.3408 	 106.397 	 
C 	 -53.1531 	 37.0352 	 106.655 	 
C 	 -53.4628 	 36.7052 	 108.043 	 
C 	 -54.0899 	 37.6258 	 108.802 	 
H 	 -53.1115 	 35.7503 	 108.404 	 
C 	 -52.3907 	 36.0471 	 105.777 	 
H 	 -52.7774 	 36.0274 	 104.743 	 
H 	 -52.6191 	 35.0393 	 106.173 	 
C 	 -50.848 	 36.0888 	 105.909 	 
H 	 -50.5145 	 37.0919 	 105.506 	 
H 	 -50.6072 	 36.0938 	 106.983 	 
C 	 -50.0538 	 34.9547 	 105.222 	 
H 	 -50.4268 	 33.9608 	 105.458 	 
H 	 -50.334 	 35.0566 	 104.16 	 
H 	 -48.9216 	 35.0351 	 105.391 	 
S 	 -53.4215 	 38.7321 	 111.22 	 
C 	 -53.8178 	 37.8404 	 112.668 	 
C 	 -54.4791 	 36.6983 	 112.448 	 
C 	 -54.7482 	 36.5243 	 111.054 	 
C 	 -54.2091 	 37.5098 	 110.244 	 
H 	 -54.7344 	 36.1461 	 113.283 	 
C 	 -55.5971 	 35.3554 	 110.558 	 
H 	 -56.0904 	 35.4992 	 109.639 	 
H 	 -56.4318 	 35.191 	 111.233 	 
C 	 -54.8136 	 34.0244 	 110.669 	 
H 	 -54.6807 	 33.6634 	 111.725 	 
H 	 -53.7842 	 34.2947 	 110.304 	 
C 	 -55.6679 	 32.994 	 109.862 	 
H 	 -55.0149 	 32.0839 	 109.826 	 
H 	 -55.7276 	 33.2155 	 108.843 	 
H 	 -56.61 	 32.6746 	 110.361 	 
H 	 -53.2998 	 38.9624 	 105.512 	 
H 	 -53.6022 	 37.9717 	 113.745 	 
