34

S 	 -91.9302 	 56.1617 	 130.4 	 
C 	 -90.9855 	 54.7278 	 130.785 	 
C 	 -89.9577 	 54.5058 	 129.85 	 
C 	 -89.9609 	 55.4313 	 128.8 	 
C 	 -90.9479 	 56.3416 	 128.901 	 
H 	 -89.333 	 55.4296 	 127.902 	 
C 	 -88.9624 	 53.4139 	 130.011 	 
H 	 -88.1157 	 53.8349 	 130.541 	 
H 	 -88.4534 	 53.2681 	 129.051 	 
C 	 -89.4335 	 52.0188 	 130.536 	 
H 	 -89.9286 	 52.0933 	 131.539 	 
H 	 -90.0899 	 51.697 	 129.693 	 
C 	 -88.2818 	 50.9546 	 130.539 	 
H 	 -88.5843 	 49.9869 	 130.556 	 
H 	 -87.7695 	 51.033 	 129.552 	 
H 	 -87.541 	 51.0444 	 131.333 	 
S 	 -91.6563 	 58.8953 	 128.343 	 
C 	 -92.5971 	 59.2213 	 126.965 	 
C 	 -92.8505 	 58.0755 	 126.234 	 
C 	 -92.1853 	 56.8986 	 126.762 	 
C 	 -91.5202 	 57.1921 	 127.93 	 
H 	 -93.4663 	 58.1531 	 125.312 	 
C 	 -92.4092 	 55.5472 	 126.084 	 
H 	 -93.1328 	 55.5925 	 125.29 	 
H 	 -92.7333 	 54.8512 	 126.897 	 
C 	 -91.1781 	 54.8969 	 125.493 	 
H 	 -91.5315 	 53.9888 	 124.966 	 
H 	 -90.5477 	 54.5499 	 126.302 	 
C 	 -90.3069 	 55.7402 	 124.642 	 
H 	 -89.3862 	 55.2473 	 124.488 	 
H 	 -89.9915 	 56.6519 	 125.102 	 
H 	 -90.752 	 55.9373 	 123.774 	 
H 	 -91.111 	 54.1971 	 131.666 	 
H 	 -93.0942 	 60.2036 	 126.775 	 
