34

S 	 -68.5371 	 54.3799 	 135.236 	 
C 	 -68.1813 	 54.7583 	 136.873 	 
C 	 -68.5676 	 53.7815 	 137.806 	 
C 	 -69.3341 	 52.7856 	 137.173 	 
C 	 -69.4365 	 53.0143 	 135.811 	 
H 	 -69.8964 	 51.9364 	 137.533 	 
C 	 -68.4331 	 53.9437 	 139.296 	 
H 	 -68.4958 	 55.0053 	 139.66 	 
H 	 -67.3297 	 53.8009 	 139.48 	 
C 	 -69.1196 	 52.9938 	 140.232 	 
H 	 -70.2482 	 53.0303 	 140.125 	 
H 	 -68.8078 	 52.041 	 139.926 	 
C 	 -68.7539 	 53.3108 	 141.722 	 
H 	 -69.1001 	 52.5333 	 142.415 	 
H 	 -67.6564 	 53.3541 	 141.901 	 
H 	 -69.1875 	 54.2864 	 142.01 	 
S 	 -69.3838 	 50.8853 	 134.215 	 
C 	 -70.8706 	 50.3206 	 133.444 	 
C 	 -71.935 	 51.0683 	 133.832 	 
C 	 -71.565 	 52.1935 	 134.683 	 
C 	 -70.1941 	 52.2956 	 134.863 	 
H 	 -72.9401 	 50.8542 	 133.468 	 
C 	 -72.5987 	 53.2496 	 135.216 	 
H 	 -73.4178 	 53.3405 	 134.479 	 
H 	 -72.0919 	 54.2126 	 135.259 	 
C 	 -73.1916 	 53.1193 	 136.623 	 
H 	 -73.6997 	 54.0248 	 136.898 	 
H 	 -72.4575 	 52.7846 	 137.362 	 
C 	 -74.3099 	 52.1114 	 136.648 	 
H 	 -75.1293 	 52.1243 	 135.944 	 
H 	 -74.8021 	 52.0184 	 137.699 	 
H 	 -73.8393 	 51.226 	 136.503 	 
H 	 -67.7552 	 55.6907 	 137.253 	 
H 	 -70.8983 	 49.3576 	 132.975 	 
