34

S 	 21.9662 	 0.703789 	 83.0507 	 
C 	 23.2809 	 1.22724 	 82.1262 	 
C 	 22.8914 	 2.07616 	 81.0613 	 
C 	 21.4552 	 2.20607 	 81.0853 	 
C 	 20.8027 	 1.46324 	 82.0827 	 
H 	 20.8527 	 2.83464 	 80.3834 	 
C 	 23.8181 	 2.73111 	 80.089 	 
H 	 23.2401 	 3.06871 	 79.1969 	 
H 	 24.4995 	 1.94047 	 79.8559 	 
C 	 24.5417 	 3.89889 	 80.6588 	 
H 	 23.6536 	 4.42694 	 81.0738 	 
H 	 25.1192 	 3.49213 	 81.4851 	 
C 	 25.3828 	 4.6451 	 79.5898 	 
H 	 26.4292 	 4.34517 	 79.756 	 
H 	 25.1078 	 4.3741 	 78.6233 	 
H 	 25.3499 	 5.69521 	 79.6314 	 
S 	 18.8459 	 1.31575 	 83.9699 	 
C 	 17.1735 	 1.29239 	 83.5005 	 
C 	 17.0406 	 1.08667 	 82.1341 	 
C 	 18.2634 	 1.19156 	 81.4704 	 
C 	 19.3566 	 1.39425 	 82.3222 	 
H 	 16.0237 	 1.02886 	 81.7745 	 
C 	 18.3496 	 1.33914 	 79.9964 	 
H 	 19.1696 	 0.656858 	 79.6092 	 
H 	 18.4868 	 2.3921 	 79.7394 	 
C 	 17.0552 	 0.906022 	 79.1899 	 
H 	 16.2533 	 1.61947 	 79.3102 	 
H 	 16.6689 	 -0.0455413 	 79.5762 	 
C 	 17.4507 	 0.673565 	 77.6535 	 
H 	 16.6781 	 1.10597 	 77.0265 	 
H 	 17.4773 	 -0.438614 	 77.4345 	 
H 	 18.4158 	 1.135 	 77.4567 	 
H 	 24.3206 	 1.07509 	 82.2872 	 
H 	 16.3562 	 1.29386 	 84.2085 	 
