34

S 	 -51.5971 	 44.6434 	 108.454 	 
C 	 -50.9071 	 46.2292 	 108.492 	 
C 	 -51.8297 	 47.1729 	 108.833 	 
C 	 -53.1126 	 46.6311 	 109.078 	 
C 	 -53.1393 	 45.2533 	 108.905 	 
H 	 -53.9994 	 47.0693 	 109.393 	 
C 	 -51.4951 	 48.6191 	 109.084 	 
H 	 -52.4178 	 49.1472 	 109.098 	 
H 	 -50.8365 	 48.9868 	 108.343 	 
C 	 -50.8613 	 48.8884 	 110.482 	 
H 	 -51.3446 	 48.354 	 111.276 	 
H 	 -49.8961 	 48.6227 	 110.196 	 
C 	 -50.87 	 50.3505 	 110.716 	 
H 	 -51.8737 	 50.7914 	 110.553 	 
H 	 -50.6904 	 50.4842 	 111.743 	 
H 	 -50.0862 	 50.8596 	 110.115 	 
S 	 -55.0046 	 43.467 	 107.795 	 
C 	 -56.0872 	 42.6228 	 108.957 	 
C 	 -56.0261 	 43.2392 	 110.188 	 
C 	 -55.0473 	 44.2651 	 110.338 	 
C 	 -54.2835 	 44.3791 	 109.188 	 
H 	 -56.7368 	 42.9305 	 110.946 	 
C 	 -54.7699 	 45.0437 	 111.546 	 
H 	 -55.623 	 45.026 	 112.151 	 
H 	 -54.6847 	 46.0892 	 111.36 	 
C 	 -53.6176 	 44.5492 	 112.425 	 
H 	 -52.729 	 44.5777 	 111.83 	 
H 	 -53.7535 	 43.4817 	 112.665 	 
C 	 -53.3722 	 45.3989 	 113.681 	 
H 	 -52.4551 	 45.2009 	 114.187 	 
H 	 -54.1645 	 45.3123 	 114.455 	 
H 	 -53.3494 	 46.4439 	 113.533 	 
H 	 -49.8578 	 46.3799 	 108.403 	 
H 	 -56.8553 	 41.8865 	 108.575 	 
