34

S 	 23.5827 	 0.000482451 	 83.239 	 
C 	 24.9443 	 0.615042 	 82.3557 	 
C 	 24.4883 	 1.50835 	 81.411 	 
C 	 23.092 	 1.72308 	 81.3606 	 
C 	 22.3708 	 0.862308 	 82.1948 	 
H 	 22.4748 	 2.36054 	 80.7018 	 
C 	 25.3788 	 2.18077 	 80.4145 	 
H 	 24.7366 	 2.60891 	 79.6933 	 
H 	 26.0642 	 1.51178 	 79.8661 	 
C 	 26.1402 	 3.38146 	 80.9078 	 
H 	 25.4018 	 3.83653 	 81.5013 	 
H 	 26.9141 	 3.1887 	 81.6808 	 
C 	 26.6281 	 4.25551 	 79.7858 	 
H 	 27.4254 	 3.76698 	 79.2889 	 
H 	 25.8456 	 4.50173 	 79.0305 	 
H 	 26.8764 	 5.1891 	 80.2295 	 
S 	 20.4007 	 0.977071 	 83.993 	 
C 	 18.7427 	 1.09093 	 83.539 	 
C 	 18.6626 	 0.998679 	 82.1812 	 
C 	 19.9359 	 1.05296 	 81.5102 	 
C 	 20.9856 	 0.877771 	 82.3748 	 
H 	 17.7583 	 1.01626 	 81.5309 	 
C 	 20.0085 	 1.0774 	 80.0172 	 
H 	 21.0122 	 0.920667 	 79.6293 	 
H 	 19.8349 	 2.14558 	 79.8445 	 
C 	 18.8666 	 0.168831 	 79.3269 	 
H 	 17.799 	 0.470415 	 79.438 	 
H 	 18.9178 	 -0.777851 	 79.7064 	 
C 	 19.0694 	 0.191999 	 77.808 	 
H 	 18.2831 	 -0.38738 	 77.2971 	 
H 	 20.0122 	 -0.321517 	 77.5932 	 
H 	 19.1263 	 1.22708 	 77.374 	 
H 	 26.0064 	 0.445775 	 82.6514 	 
H 	 17.9286 	 1.1824 	 84.2016 	 
