34

S 	 -4.9501 	 64.6762 	 52.8992 	 
C 	 -4.99036 	 63.8033 	 51.3968 	 
C 	 -4.96952 	 64.5943 	 50.291 	 
C 	 -4.88379 	 65.9865 	 50.6602 	 
C 	 -4.85102 	 66.1815 	 52.0171 	 
H 	 -4.80004 	 66.8132 	 49.9692 	 
C 	 -4.85013 	 64.2285 	 48.913 	 
H 	 -4.46544 	 65.0726 	 48.3681 	 
H 	 -5.82696 	 63.9388 	 48.4314 	 
C 	 -3.84614 	 63.0373 	 48.5897 	 
H 	 -4.22679 	 62.0599 	 48.9914 	 
H 	 -3.92087 	 62.764 	 47.5621 	 
C 	 -2.36477 	 63.299 	 48.9181 	 
H 	 -2.16767 	 63.6222 	 49.9539 	 
H 	 -1.90249 	 62.2855 	 48.9014 	 
H 	 -1.71856 	 63.9709 	 48.2941 	 
S 	 -3.38576 	 68.4619 	 52.676 	 
C 	 -4.13591 	 69.7984 	 53.5277 	 
C 	 -5.47725 	 69.5832 	 53.5086 	 
C 	 -5.89983 	 68.3781 	 52.8652 	 
C 	 -4.85457 	 67.5009 	 52.6434 	 
H 	 -6.13795 	 70.296 	 53.9017 	 
C 	 -7.35128 	 68.0245 	 52.7531 	 
H 	 -7.87763 	 68.214 	 53.6958 	 
H 	 -7.62266 	 66.9467 	 52.5776 	 
C 	 -8.01991 	 68.8624 	 51.6289 	 
H 	 -7.69584 	 68.495 	 50.6365 	 
H 	 -7.68071 	 69.9491 	 51.7492 	 
C 	 -9.60215 	 68.7981 	 51.6358 	 
H 	 -10.1403 	 69.6503 	 51.1823 	 
H 	 -10.1531 	 68.693 	 52.5744 	 
H 	 -9.9322 	 67.9227 	 51.0066 	 
H 	 -4.90518 	 62.79 	 51.3943 	 
H 	 -3.69717 	 70.5873 	 54.078 	 
