34

S 	 -95.1808 	 41.464 	 122.704 	 
C 	 -93.7967 	 40.5273 	 121.975 	 
C 	 -94.3928 	 39.336 	 121.472 	 
C 	 -95.7786 	 39.1943 	 121.703 	 
C 	 -96.3897 	 40.3179 	 122.249 	 
H 	 -96.4073 	 38.3174 	 121.596 	 
C 	 -93.5706 	 38.1365 	 120.981 	 
H 	 -94.1409 	 37.3904 	 120.39 	 
H 	 -93.2116 	 37.616 	 121.898 	 
C 	 -92.4274 	 38.5318 	 120.123 	 
H 	 -92.8233 	 38.9253 	 119.204 	 
H 	 -91.8082 	 39.3303 	 120.623 	 
C 	 -91.5694 	 37.4386 	 119.512 	 
H 	 -92.2287 	 36.7032 	 118.999 	 
H 	 -90.884 	 38.0235 	 118.886 	 
H 	 -90.8853 	 36.8277 	 120.136 	 
S 	 -98.1878 	 40.6962 	 124.379 	 
C 	 -99.8305 	 40.7006 	 124.012 	 
C 	 -100.154 	 40.1846 	 122.762 	 
C 	 -98.9846 	 40.067 	 121.967 	 
C 	 -97.8002 	 40.3834 	 122.671 	 
H 	 -101.158 	 40.0386 	 122.433 	 
C 	 -99.0362 	 39.5925 	 120.489 	 
H 	 -99.6255 	 38.652 	 120.452 	 
H 	 -98.0241 	 39.3205 	 120.038 	 
C 	 -99.5798 	 40.6223 	 119.484 	 
H 	 -99.3511 	 41.6664 	 119.792 	 
H 	 -100.63 	 40.5689 	 119.646 	 
C 	 -99.1216 	 40.3624 	 118.011 	 
H 	 -99.154 	 39.3603 	 117.586 	 
H 	 -98.0853 	 40.6181 	 117.819 	 
H 	 -99.7282 	 41.1456 	 117.428 	 
H 	 -92.7514 	 40.7765 	 122.073 	 
H 	 -100.515 	 40.8247 	 124.827 	 
