34

S 	 7.33917 	 -12.6336 	 56.8455 	 
C 	 5.82478 	 -11.8855 	 56.7626 	 
C 	 5.0568 	 -12.3079 	 55.6749 	 
C 	 5.60025 	 -13.4742 	 55.0652 	 
C 	 6.84259 	 -13.8074 	 55.599 	 
H 	 5.189 	 -14.0528 	 54.3006 	 
C 	 3.6722 	 -11.8692 	 55.1911 	 
H 	 3.7896 	 -11.6753 	 54.1172 	 
H 	 3.48951 	 -10.9713 	 55.7646 	 
C 	 2.51463 	 -12.8532 	 55.3403 	 
H 	 1.67492 	 -12.3725 	 54.7647 	 
H 	 2.75333 	 -13.8189 	 54.8307 	 
C 	 2.11595 	 -12.9826 	 56.7755 	 
H 	 2.95097 	 -13.142 	 57.4272 	 
H 	 1.73332 	 -12.0945 	 57.2919 	 
H 	 1.43613 	 -13.751 	 57.1008 	 
S 	 9.089 	 -14.6105 	 54.2713 	 
C 	 9.5183 	 -16.3095 	 54.1486 	 
C 	 8.64583 	 -17.0428 	 54.9165 	 
C 	 7.67694 	 -16.2585 	 55.6174 	 
C 	 7.71047 	 -14.9107 	 55.2927 	 
H 	 8.77339 	 -18.1248 	 54.9928 	 
C 	 6.66158 	 -16.8749 	 56.5463 	 
H 	 6.64848 	 -17.9919 	 56.3221 	 
H 	 5.71483 	 -16.5081 	 56.2512 	 
C 	 6.72927 	 -16.5946 	 58.0198 	 
H 	 6.68402 	 -15.5165 	 58.1989 	 
H 	 7.74313 	 -16.8152 	 58.3919 	 
C 	 5.5502 	 -17.1991 	 58.69 	 
H 	 4.52213 	 -16.847 	 58.5137 	 
H 	 5.62302 	 -17.0817 	 59.7664 	 
H 	 5.58964 	 -18.2631 	 58.6693 	 
H 	 5.49408 	 -11.0685 	 57.3345 	 
H 	 10.4143 	 -16.7113 	 53.7186 	 
