34

S 	 -28.3007 	 75.9946 	 157.272 	 
C 	 -27.3561 	 77.2006 	 158.202 	 
C 	 -28.025 	 77.3768 	 159.404 	 
C 	 -29.0101 	 76.4061 	 159.709 	 
C 	 -29.2976 	 75.545 	 158.661 	 
H 	 -29.5534 	 76.2055 	 160.614 	 
C 	 -27.6489 	 78.2787 	 160.495 	 
H 	 -26.6233 	 78.5506 	 160.22 	 
H 	 -27.6129 	 77.7772 	 161.44 	 
C 	 -28.6832 	 79.5087 	 160.549 	 
H 	 -28.8094 	 79.7905 	 159.613 	 
H 	 -29.6147 	 78.9964 	 160.798 	 
C 	 -28.21 	 80.7165 	 161.486 	 
H 	 -27.8601 	 80.4481 	 162.474 	 
H 	 -27.4343 	 81.2991 	 160.969 	 
H 	 -29.0859 	 81.3548 	 161.703 	 
S 	 -29.6531 	 72.8187 	 158.441 	 
C 	 -31.1458 	 72.1192 	 158.986 	 
C 	 -32.1045 	 73.0268 	 159.282 	 
C 	 -31.6329 	 74.391 	 159.063 	 
C 	 -30.2518 	 74.4189 	 158.684 	 
H 	 -33.0435 	 72.6466 	 159.631 	 
C 	 -32.5229 	 75.6297 	 159.158 	 
H 	 -31.9648 	 76.4511 	 158.742 	 
H 	 -32.842 	 75.8405 	 160.273 	 
C 	 -33.9287 	 75.5841 	 158.378 	 
H 	 -34.2631 	 76.6027 	 158.27 	 
H 	 -34.5622 	 74.9506 	 158.967 	 
C 	 -33.9099 	 75.0278 	 156.902 	 
H 	 -33.4934 	 73.9843 	 156.803 	 
H 	 -33.3413 	 75.5527 	 156.144 	 
H 	 -34.8977 	 75.01 	 156.485 	 
H 	 -26.5589 	 77.8227 	 157.766 	 
H 	 -31.3379 	 71.0466 	 159.006 	 
