34

S 	 -10.5263 	 -11.6608 	 87.5271 	 
C 	 -11.7913 	 -12.7508 	 87.1193 	 
C 	 -12.7235 	 -12.102 	 86.3197 	 
C 	 -12.433 	 -10.7917 	 86.1057 	 
C 	 -11.3029 	 -10.3202 	 86.7956 	 
H 	 -12.95 	 -10.2629 	 85.3973 	 
C 	 -14.0121 	 -12.6713 	 85.8238 	 
H 	 -14.6746 	 -11.7791 	 85.7187 	 
H 	 -14.5287 	 -13.3154 	 86.5285 	 
C 	 -13.9476 	 -13.153 	 84.3699 	 
H 	 -13.3951 	 -12.3016 	 83.8861 	 
H 	 -13.3963 	 -14.0641 	 84.3944 	 
C 	 -15.3079 	 -13.3444 	 83.7536 	 
H 	 -15.7338 	 -14.2765 	 84.0846 	 
H 	 -16.0906 	 -12.5521 	 84.0308 	 
H 	 -15.2466 	 -13.4338 	 82.6803 	 
S 	 -9.05357 	 -8.78763 	 86.4402 	 
C 	 -9.21195 	 -6.98079 	 86.5391 	 
C 	 -10.4947 	 -6.61152 	 86.9198 	 
C 	 -11.4232 	 -7.72796 	 86.9232 	 
C 	 -10.7654 	 -8.94556 	 86.8269 	 
H 	 -10.7709 	 -5.57696 	 87.1089 	 
C 	 -12.9168 	 -7.62503 	 87.1163 	 
H 	 -13.1684 	 -8.366 	 87.8847 	 
H 	 -13.4933 	 -8.04342 	 86.3261 	 
C 	 -13.4575 	 -6.22635 	 87.4904 	 
H 	 -13.4612 	 -5.67678 	 86.5424 	 
H 	 -12.8485 	 -5.75499 	 88.2864 	 
C 	 -14.8625 	 -6.22152 	 88.0919 	 
H 	 -15.4462 	 -5.30631 	 88.0331 	 
H 	 -14.9661 	 -6.52872 	 89.0816 	 
H 	 -15.4256 	 -6.87588 	 87.5171 	 
H 	 -11.8334 	 -13.8324 	 87.2972 	 
H 	 -8.46317 	 -6.22639 	 86.3996 	 
