34

S 	 34.5593 	 17.4299 	 64.0611 	 
C 	 34.1159 	 18.3718 	 65.4152 	 
C 	 35.1248 	 18.4226 	 66.3886 	 
C 	 36.3733 	 17.8684 	 65.9251 	 
C 	 36.2364 	 17.2473 	 64.6809 	 
H 	 37.3385 	 17.8722 	 66.424 	 
C 	 34.9026 	 19.1301 	 67.7006 	 
H 	 34.9055 	 18.3893 	 68.4677 	 
H 	 33.8799 	 19.5756 	 67.6985 	 
C 	 35.7799 	 20.324 	 67.9279 	 
H 	 36.8359 	 20.041 	 67.7977 	 
H 	 35.5235 	 21.1595 	 67.2221 	 
C 	 35.4514 	 20.8535 	 69.3264 	 
H 	 36.1981 	 21.6112 	 69.3586 	 
H 	 34.5078 	 21.3838 	 69.4558 	 
H 	 35.6451 	 20.2088 	 70.1921 	 
S 	 37.4299 	 17.3478 	 62.2391 	 
C 	 38.8667 	 16.3704 	 61.9766 	 
C 	 39.2297 	 15.5945 	 63.0637 	 
C 	 38.3538 	 15.7822 	 64.1927 	 
C 	 37.3433 	 16.6529 	 63.9138 	 
H 	 39.9612 	 14.9068 	 62.8334 	 
C 	 38.5753 	 14.9312 	 65.4136 	 
H 	 38.1573 	 15.594 	 66.2759 	 
H 	 39.6901 	 14.8298 	 65.4195 	 
C 	 37.7914 	 13.6521 	 65.4834 	 
H 	 38.3338 	 12.9688 	 66.1336 	 
H 	 37.6733 	 13.2495 	 64.4929 	 
C 	 36.4001 	 13.7709 	 65.9139 	 
H 	 35.8937 	 14.5628 	 65.3461 	 
H 	 36.181 	 14.0152 	 66.9792 	 
H 	 35.8552 	 12.8995 	 65.5704 	 
H 	 33.1582 	 18.7566 	 65.6084 	 
H 	 39.532 	 16.3505 	 61.0821 	 
