34

S 	 14.0161 	 22.0477 	 39.7791 	 
C 	 14.3688 	 22.4771 	 38.1077 	 
C 	 14.5628 	 21.3647 	 37.3076 	 
C 	 14.4383 	 20.1692 	 38.0746 	 
C 	 14.177 	 20.3503 	 39.4155 	 
H 	 14.5618 	 19.1089 	 37.7252 	 
C 	 15.0023 	 21.3949 	 35.8671 	 
H 	 15.6116 	 20.4541 	 35.5788 	 
H 	 15.6108 	 22.3188 	 35.694 	 
C 	 13.8488 	 21.5675 	 34.8115 	 
H 	 14.1908 	 21.7005 	 33.772 	 
H 	 13.3336 	 20.658 	 34.7983 	 
C 	 12.9775 	 22.8487 	 35.2306 	 
H 	 12.2354 	 23.0406 	 34.4465 	 
H 	 12.5439 	 22.7748 	 36.1784 	 
H 	 13.6954 	 23.6782 	 35.2183 	 
S 	 15.4587 	 19.4742 	 41.7002 	 
C 	 14.7528 	 18.0542 	 42.4876 	 
C 	 13.5461 	 17.672 	 41.8764 	 
C 	 13.3107 	 18.3442 	 40.6797 	 
C 	 14.1949 	 19.3928 	 40.5011 	 
H 	 12.9583 	 16.8485 	 42.3333 	 
C 	 11.9855 	 18.0513 	 39.9204 	 
H 	 11.6535 	 17.0028 	 40.0108 	 
H 	 12.381 	 18.0288 	 38.9626 	 
C 	 10.8023 	 18.996 	 40.1368 	 
H 	 10.0732 	 18.7484 	 39.4288 	 
H 	 10.9327 	 20.0463 	 39.8487 	 
C 	 10.1019 	 18.9291 	 41.4886 	 
H 	 10.568 	 19.3353 	 42.3732 	 
H 	 9.88805 	 17.8911 	 41.6993 	 
H 	 9.19503 	 19.4149 	 41.4459 	 
H 	 14.499 	 23.483 	 37.6897 	 
H 	 15.0763 	 17.6721 	 43.4795 	 
