34

S 	 0.17491 	 78.7256 	 47.7789 	 
C 	 0.645621 	 80.1328 	 48.6798 	 
C 	 1.05766 	 79.9229 	 49.9519 	 
C 	 1.08631 	 78.4545 	 50.1531 	 
C 	 0.746178 	 77.6984 	 49.0353 	 
H 	 1.41317 	 77.957 	 51.0967 	 
C 	 1.4674 	 80.8355 	 51.0533 	 
H 	 1.02877 	 80.3904 	 51.9419 	 
H 	 1.02863 	 81.8512 	 50.9357 	 
C 	 2.93452 	 81.1637 	 51.1089 	 
H 	 3.47694 	 80.2444 	 51.0739 	 
H 	 3.2584 	 81.8113 	 50.1962 	 
C 	 3.23152 	 81.9424 	 52.3749 	 
H 	 3.31517 	 81.2545 	 53.1971 	 
H 	 4.10622 	 82.5522 	 52.1673 	 
H 	 2.41269 	 82.6696 	 52.43 	 
S 	 2.31499 	 75.3986 	 48.999 	 
C 	 1.57574 	 73.8163 	 49.0299 	 
C 	 0.229791 	 73.9042 	 49.2488 	 
C 	 -0.22348 	 75.3206 	 49.3412 	 
C 	 0.796353 	 76.242 	 49.106 	 
H 	 -0.409068 	 73.0146 	 49.3661 	 
C 	 -1.67998 	 75.6924 	 49.5013 	 
H 	 -2.23663 	 74.7929 	 49.2391 	 
H 	 -1.90606 	 76.4312 	 48.8653 	 
C 	 -2.02842 	 76.1877 	 50.8847 	 
H 	 -1.29928 	 76.9311 	 51.207 	 
H 	 -2.00467 	 75.3239 	 51.589 	 
C 	 -3.49708 	 76.6935 	 50.8314 	 
H 	 -3.44517 	 77.4636 	 50.0481 	 
H 	 -3.80282 	 77.156 	 51.7534 	 
H 	 -4.26299 	 76.0104 	 50.5636 	 
H 	 0.700672 	 81.1286 	 48.1631 	 
H 	 2.11513 	 72.9005 	 49.168 	 
