34

S 	 -101.148 	 48.6397 	 120.097 	 
C 	 -101.824 	 49.9142 	 121.111 	 
C 	 -102.103 	 49.4406 	 122.387 	 
C 	 -101.943 	 48.0271 	 122.381 	 
C 	 -101.449 	 47.4199 	 121.269 	 
H 	 -102.303 	 47.4879 	 123.217 	 
C 	 -102.37 	 50.2601 	 123.663 	 
H 	 -103.26 	 49.9238 	 124.149 	 
H 	 -102.497 	 51.245 	 123.222 	 
C 	 -101.275 	 50.4119 	 124.74 	 
H 	 -101.648 	 50.8921 	 125.66 	 
H 	 -100.938 	 49.3787 	 124.899 	 
C 	 -100.019 	 51.0318 	 124.175 	 
H 	 -99.6603 	 50.5978 	 123.291 	 
H 	 -100.295 	 52.0882 	 123.93 	 
H 	 -99.2087 	 51.0693 	 124.935 	 
S 	 -102.635 	 44.9831 	 120.869 	 
C 	 -101.696 	 43.514 	 121.171 	 
C 	 -100.336 	 43.8653 	 121.211 	 
C 	 -100.056 	 45.217 	 121.141 	 
C 	 -101.208 	 46.0083 	 121.131 	 
H 	 -99.5401 	 43.121 	 121.43 	 
C 	 -98.6782 	 45.6675 	 121.523 	 
H 	 -98.4292 	 46.5861 	 120.991 	 
H 	 -98.0589 	 45.0136 	 120.946 	 
C 	 -98.3172 	 45.5553 	 122.979 	 
H 	 -97.2023 	 45.6946 	 123.119 	 
H 	 -98.479 	 44.4882 	 123.235 	 
C 	 -99.1752 	 46.4405 	 124.002 	 
H 	 -99.1458 	 47.4218 	 123.509 	 
H 	 -98.7905 	 46.5372 	 124.988 	 
H 	 -100.254 	 46.1405 	 123.858 	 
H 	 -101.735 	 50.9282 	 120.885 	 
H 	 -102.075 	 42.5408 	 121.093 	 
