34

S 	 41.6304 	 20.3056 	 80.7986 	 
C 	 39.9713 	 20.8636 	 80.9693 	 
C 	 39.4405 	 21.1799 	 79.7275 	 
C 	 40.3435 	 20.9171 	 78.6768 	 
C 	 41.5545 	 20.3742 	 79.0626 	 
H 	 40.1559 	 21.1863 	 77.6256 	 
C 	 38.0306 	 21.7809 	 79.5917 	 
H 	 37.2741 	 21.195 	 80.0686 	 
H 	 37.6913 	 21.6906 	 78.5262 	 
C 	 37.9139 	 23.2462 	 80.1075 	 
H 	 38.179 	 23.2891 	 81.1604 	 
H 	 38.6468 	 23.9867 	 79.7018 	 
C 	 36.5351 	 23.7651 	 79.8182 	 
H 	 36.3705 	 23.8102 	 78.7372 	 
H 	 35.6865 	 23.2898 	 80.3494 	 
H 	 36.5586 	 24.827 	 80.1257 	 
S 	 44.298 	 20.6279 	 78.7654 	 
C 	 45.0073 	 20.3386 	 77.197 	 
C 	 44.1478 	 19.5285 	 76.4533 	 
C 	 42.7924 	 19.4636 	 77.0152 	 
C 	 42.71 	 20.1436 	 78.2003 	 
H 	 44.4513 	 19.1266 	 75.5433 	 
C 	 41.7687 	 18.6459 	 76.2628 	 
H 	 42.1656 	 18.4877 	 75.2696 	 
H 	 40.7865 	 19.2195 	 76.1803 	 
C 	 41.4009 	 17.2997 	 76.9374 	 
H 	 40.5597 	 16.8724 	 76.3493 	 
H 	 41.0583 	 17.5195 	 77.9527 	 
C 	 42.5182 	 16.2153 	 76.978 	 
H 	 42.1333 	 15.2579 	 77.3415 	 
H 	 43.4337 	 16.4557 	 77.5977 	 
H 	 42.9513 	 16.0404 	 76.0188 	 
H 	 39.4366 	 20.9769 	 81.8697 	 
H 	 46.0547 	 20.2359 	 76.9666 	 
