34

S 	 -8.05664 	 41.5873 	 36.4222 	 
C 	 -8.45956 	 40.1531 	 35.4518 	 
C 	 -7.69548 	 39.0586 	 35.9018 	 
C 	 -6.61666 	 39.4348 	 36.7281 	 
C 	 -6.58312 	 40.785 	 36.9353 	 
H 	 -5.88388 	 38.9121 	 37.2193 	 
C 	 -7.84461 	 37.6269 	 35.3995 	 
H 	 -7.07858 	 37.4881 	 34.6524 	 
H 	 -8.77607 	 37.4675 	 34.8958 	 
C 	 -7.58793 	 36.5086 	 36.3417 	 
H 	 -6.65363 	 36.5363 	 36.852 	 
H 	 -8.25529 	 36.6239 	 37.1259 	 
C 	 -7.74079 	 35.128 	 35.7641 	 
H 	 -8.75236 	 34.8961 	 35.3209 	 
H 	 -7.03224 	 35.2429 	 34.9237 	 
H 	 -7.46641 	 34.4235 	 36.5238 	 
S 	 -6.22904 	 42.9233 	 38.6894 	 
C 	 -4.55396 	 43.2979 	 39.1056 	 
C 	 -3.59233 	 42.5099 	 38.5719 	 
C 	 -4.13924 	 41.4791 	 37.8194 	 
C 	 -5.53539 	 41.6175 	 37.6423 	 
H 	 -2.5595 	 42.8257 	 38.7876 	 
C 	 -3.27779 	 40.3531 	 37.307 	 
H 	 -3.69222 	 39.3509 	 37.5484 	 
H 	 -2.34858 	 40.4812 	 37.961 	 
C 	 -2.76855 	 40.4228 	 35.8081 	 
H 	 -2.39277 	 41.437 	 35.7265 	 
H 	 -3.52795 	 40.4228 	 35.1074 	 
C 	 -1.81309 	 39.3209 	 35.462 	 
H 	 -2.45404 	 38.4604 	 35.4281 	 
H 	 -1.02617 	 39.211 	 36.2017 	 
H 	 -1.41532 	 39.5853 	 34.5218 	 
H 	 -9.20049 	 40.1612 	 34.7089 	 
H 	 -4.2348 	 44.0307 	 39.7502 	 
