34

S 	 5.91771 	 -10.6849 	 64.8748 	 
C 	 6.30087 	 -10.0025 	 66.38 	 
C 	 5.18252 	 -9.4152 	 67.0211 	 
C 	 4.00488 	 -9.44703 	 66.1017 	 
C 	 4.32911 	 -9.97578 	 64.8781 	 
H 	 3.04745 	 -9.15517 	 66.4348 	 
C 	 5.20967 	 -8.89199 	 68.5165 	 
H 	 4.24986 	 -8.45984 	 68.7231 	 
H 	 5.87291 	 -8.03747 	 68.6211 	 
C 	 5.59788 	 -10.0289 	 69.4753 	 
H 	 5.0419 	 -10.9199 	 69.2713 	 
H 	 6.6595 	 -10.3886 	 69.3816 	 
C 	 5.37402 	 -9.48069 	 70.8762 	 
H 	 5.89942 	 -8.58171 	 70.9255 	 
H 	 4.41937 	 -9.1113 	 71.1174 	 
H 	 5.77003 	 -10.1223 	 71.7292 	 
S 	 2.40905 	 -8.9127 	 63.2503 	 
C 	 1.49469 	 -9.85345 	 62.1747 	 
C 	 1.97451 	 -11.112 	 62.1141 	 
C 	 3.02284 	 -11.3821 	 63.0695 	 
C 	 3.3767 	 -10.2615 	 63.762 	 
H 	 1.56688 	 -11.8845 	 61.4854 	 
C 	 3.63653 	 -12.77 	 63.0862 	 
H 	 2.92543 	 -13.6387 	 62.9584 	 
H 	 4.12585 	 -12.8794 	 64.0406 	 
C 	 4.85209 	 -12.8577 	 62.0975 	 
H 	 5.59605 	 -12.0695 	 62.2411 	 
H 	 4.45466 	 -12.7928 	 61.0735 	 
C 	 5.58284 	 -14.2086 	 62.0348 	 
H 	 6.25452 	 -14.3129 	 61.1929 	 
H 	 4.97078 	 -15.1256 	 62.0252 	 
H 	 6.21936 	 -14.2257 	 62.9409 	 
H 	 7.20941 	 -10.0872 	 66.8779 	 
H 	 0.60626 	 -9.38587 	 61.7038 	 
