34

S 	 -47.3217 	 32.0266 	 96.972 	 
C 	 -47.6137 	 33.7129 	 96.6729 	 
C 	 -47.6704 	 34.3496 	 97.9002 	 
C 	 -47.8416 	 33.4768 	 99.0111 	 
C 	 -47.8249 	 32.17 	 98.6552 	 
H 	 -47.8998 	 33.7404 	 100.063 	 
C 	 -47.483 	 35.8473 	 98.046 	 
H 	 -46.5438 	 36.1327 	 97.4249 	 
H 	 -47.2191 	 36.2062 	 99.068 	 
C 	 -48.7212 	 36.6323 	 97.4745 	 
H 	 -48.4464 	 37.6514 	 97.2648 	 
H 	 -49.0369 	 36.1838 	 96.5193 	 
C 	 -49.8298 	 36.5979 	 98.5414 	 
H 	 -50.2104 	 35.5849 	 98.5407 	 
H 	 -49.5455 	 36.869 	 99.5549 	 
H 	 -50.7177 	 37.1357 	 98.2853 	 
S 	 -46.9948 	 29.5951 	 99.1049 	 
C 	 -47.5115 	 28.7728 	 100.531 	 
C 	 -48.2977 	 29.503 	 101.308 	 
C 	 -48.5518 	 30.841 	 100.756 	 
C 	 -47.9263 	 31.0243 	 99.557 	 
H 	 -48.7754 	 29.1105 	 102.248 	 
C 	 -49.5877 	 31.7878 	 101.409 	 
H 	 -50.5445 	 31.3067 	 101.456 	 
H 	 -49.7157 	 32.7144 	 100.779 	 
C 	 -49.2479 	 32.3095 	 102.859 	 
H 	 -49.0778 	 31.4412 	 103.537 	 
H 	 -50.0436 	 32.9227 	 103.247 	 
C 	 -48.0308 	 33.1827 	 102.869 	 
H 	 -47.5859 	 33.0833 	 103.882 	 
H 	 -48.2814 	 34.2394 	 102.785 	 
H 	 -47.4002 	 32.8859 	 102.121 	 
H 	 -47.4441 	 34.1748 	 95.6915 	 
H 	 -47.2395 	 27.6741 	 100.795 	 
