34

S 	 -47.78 	 67.4423 	 126.746 	 
C 	 -47.6728 	 65.7664 	 126.631 	 
C 	 -46.7337 	 65.2963 	 127.559 	 
C 	 -46.2672 	 66.3578 	 128.487 	 
C 	 -46.6162 	 67.5897 	 128.043 	 
H 	 -45.7324 	 66.1943 	 129.374 	 
C 	 -46.153 	 63.9074 	 127.555 	 
H 	 -46.7578 	 63.2184 	 126.97 	 
H 	 -46.2411 	 63.6517 	 128.624 	 
C 	 -44.6957 	 63.8672 	 126.926 	 
H 	 -44.628 	 62.937 	 126.435 	 
H 	 -44.5378 	 64.711 	 126.236 	 
C 	 -43.7165 	 63.8984 	 128.122 	 
H 	 -44.1129 	 63.1572 	 128.878 	 
H 	 -42.7007 	 63.6283 	 127.811 	 
H 	 -43.6747 	 64.8687 	 128.634 	 
S 	 -44.8574 	 69.5652 	 128.275 	 
C 	 -45.1165 	 70.8373 	 129.49 	 
C 	 -46.3061 	 70.714 	 130.123 	 
C 	 -46.9558 	 69.5072 	 129.741 	 
C 	 -46.3103 	 68.7832 	 128.744 	 
H 	 -46.5244 	 71.4274 	 130.928 	 
C 	 -48.2669 	 69.0131 	 130.378 	 
H 	 -48.2581 	 67.9495 	 130.489 	 
H 	 -48.9809 	 69.2716 	 129.658 	 
C 	 -48.6704 	 69.5693 	 131.768 	 
H 	 -48.7492 	 70.6571 	 131.813 	 
H 	 -47.8297 	 69.4457 	 132.448 	 
C 	 -50.0367 	 69.0118 	 132.271 	 
H 	 -49.9787 	 67.9601 	 132.386 	 
H 	 -50.8272 	 69.2993 	 131.55 	 
H 	 -50.5157 	 69.4044 	 133.19 	 
H 	 -48.1369 	 65.1618 	 125.813 	 
H 	 -44.4441 	 71.6006 	 129.622 	 
