34

S 	 51.1551 	 7.82103 	 83.8104 	 
C 	 51.5415 	 7.98249 	 85.5159 	 
C 	 51.7892 	 6.82772 	 86.1416 	 
C 	 51.679 	 5.72637 	 85.2501 	 
C 	 51.4426 	 6.06941 	 83.9436 	 
H 	 51.7456 	 4.66067 	 85.532 	 
C 	 51.9993 	 6.62531 	 87.6435 	 
H 	 51.1538 	 6.05928 	 87.9922 	 
H 	 51.9737 	 7.56896 	 88.2491 	 
C 	 53.1426 	 5.72075 	 88.1193 	 
H 	 53.0252 	 5.27088 	 89.1812 	 
H 	 53.1824 	 4.84869 	 87.4592 	 
C 	 54.5223 	 6.27038 	 88.0384 	 
H 	 54.7365 	 7.17665 	 88.5565 	 
H 	 55.2678 	 5.60265 	 88.498 	 
H 	 54.892 	 6.31403 	 86.9866 	 
S 	 49.7065 	 5.62125 	 81.9302 	 
C 	 50.0054 	 4.34845 	 80.7834 	 
C 	 51.113 	 3.59283 	 81.1253 	 
C 	 51.7309 	 4.05564 	 82.3228 	 
C 	 51.1291 	 5.2329 	 82.7972 	 
H 	 51.3905 	 2.75165 	 80.502 	 
C 	 52.8649 	 3.31253 	 83.0029 	 
H 	 53.5817 	 4.02889 	 83.4585 	 
H 	 53.4553 	 2.91743 	 82.245 	 
C 	 52.5818 	 2.19025 	 84.0392 	 
H 	 52.0063 	 1.37452 	 83.7145 	 
H 	 51.8721 	 2.65106 	 84.6966 	 
C 	 53.7638 	 1.66692 	 84.7961 	 
H 	 54.1026 	 2.52802 	 85.2525 	 
H 	 54.5596 	 1.44158 	 84.1379 	 
H 	 53.6215 	 0.776822 	 85.3918 	 
H 	 51.6661 	 8.94645 	 86.0539 	 
H 	 49.3505 	 4.15507 	 79.9396 	 
