34

S 	 -13.1237 	 38.1246 	 33.762 	 
C 	 -14.2582 	 37.2103 	 34.6862 	 
C 	 -14.9011 	 36.2344 	 33.9054 	 
C 	 -14.4593 	 36.2996 	 32.5644 	 
C 	 -13.5784 	 37.3828 	 32.2742 	 
H 	 -14.7323 	 35.6138 	 31.7464 	 
C 	 -15.9434 	 35.2576 	 34.3777 	 
H 	 -16.1635 	 35.3009 	 35.4556 	 
H 	 -15.6331 	 34.2428 	 34.2287 	 
C 	 -17.3897 	 35.3808 	 33.885 	 
H 	 -17.5152 	 35.1364 	 32.8587 	 
H 	 -17.9968 	 34.6285 	 34.3273 	 
C 	 -18.0374 	 36.7378 	 34.3207 	 
H 	 -19.0309 	 36.8884 	 33.9361 	 
H 	 -18.327 	 36.7005 	 35.3624 	 
H 	 -17.5687 	 37.7288 	 34.0198 	 
S 	 -11.5771 	 38.5073 	 30.7032 	 
C 	 -11.9139 	 38.8002 	 29.0042 	 
C 	 -13.1705 	 38.3134 	 28.6686 	 
C 	 -13.9295 	 37.8161 	 29.7722 	 
C 	 -13.2305 	 37.916 	 30.96 	 
H 	 -13.5286 	 38.4128 	 27.7045 	 
C 	 -15.3725 	 37.3808 	 29.5727 	 
H 	 -15.8833 	 38.1427 	 28.9893 	 
H 	 -15.8336 	 37.3474 	 30.5544 	 
C 	 -15.5063 	 36.0405 	 28.7448 	 
H 	 -15.3001 	 35.2296 	 29.4279 	 
H 	 -14.7225 	 35.9145 	 28.0257 	 
C 	 -16.8714 	 36.0489 	 28.0904 	 
H 	 -17.0392 	 36.9992 	 27.5684 	 
H 	 -17.6377 	 35.7938 	 28.8763 	 
H 	 -16.986 	 35.265 	 27.3892 	 
H 	 -14.4402 	 37.3092 	 35.7228 	 
H 	 -11.319 	 39.3138 	 28.2873 	 
