34

S 	 -107.265 	 58.7805 	 115.98 	 
C 	 -107.186 	 58.6651 	 114.223 	 
C 	 -107.017 	 57.3969 	 113.742 	 
C 	 -106.953 	 56.449 	 114.78 	 
C 	 -106.998 	 56.9861 	 116.048 	 
H 	 -106.879 	 55.2862 	 114.764 	 
C 	 -106.943 	 57.1003 	 112.319 	 
H 	 -106.143 	 56.332 	 112.189 	 
H 	 -106.658 	 58.0897 	 111.836 	 
C 	 -108.378 	 56.592 	 111.865 	 
H 	 -108.394 	 56.3986 	 110.795 	 
H 	 -108.592 	 55.6893 	 112.321 	 
C 	 -109.562 	 57.5859 	 112.14 	 
H 	 -110.266 	 57.1173 	 111.535 	 
H 	 -109.795 	 57.5319 	 113.213 	 
H 	 -109.359 	 58.5289 	 111.721 	 
S 	 -105.462 	 56.8471 	 118.396 	 
C 	 -105.657 	 55.4725 	 119.414 	 
C 	 -106.829 	 54.8044 	 119.131 	 
C 	 -107.425 	 55.1927 	 117.925 	 
C 	 -106.765 	 56.2601 	 117.303 	 
H 	 -107.221 	 53.9537 	 119.715 	 
C 	 -108.648 	 54.5557 	 117.342 	 
H 	 -109.22 	 55.3597 	 116.707 	 
H 	 -109.297 	 54.2843 	 118.131 	 
C 	 -108.397 	 53.2836 	 116.51 	 
H 	 -107.928 	 52.5947 	 117.154 	 
H 	 -107.638 	 53.3029 	 115.679 	 
C 	 -109.705 	 52.6657 	 115.934 	 
H 	 -109.439 	 51.7241 	 115.438 	 
H 	 -110.148 	 53.285 	 115.193 	 
H 	 -110.442 	 52.4903 	 116.688 	 
H 	 -107.259 	 59.4903 	 113.541 	 
H 	 -105.281 	 55.3099 	 120.44 	 
