34

S 	 -76.5175 	 49.8105 	 137.38 	 
C 	 -77.6692 	 48.9197 	 138.362 	 
C 	 -78.6607 	 49.7911 	 138.796 	 
C 	 -78.6388 	 51.0605 	 138.158 	 
C 	 -77.569 	 51.1906 	 137.318 	 
H 	 -79.4203 	 51.8154 	 138.306 	 
C 	 -79.8562 	 49.2669 	 139.629 	 
H 	 -80.1882 	 50.0737 	 140.282 	 
H 	 -79.577 	 48.4648 	 140.277 	 
C 	 -81.0354 	 48.806 	 138.79 	 
H 	 -81.2863 	 49.5184 	 138.032 	 
H 	 -80.7897 	 47.9843 	 138.088 	 
C 	 -82.2858 	 48.3534 	 139.638 	 
H 	 -81.9266 	 47.6455 	 140.334 	 
H 	 -82.7548 	 49.2005 	 140.171 	 
H 	 -83.0169 	 47.8305 	 139.005 	 
S 	 -77.2286 	 51.9785 	 134.693 	 
C 	 -77.1768 	 53.6824 	 134.34 	 
C 	 -76.914 	 54.4637 	 135.491 	 
C 	 -77.098 	 53.691 	 136.711 	 
C 	 -77.215 	 52.3135 	 136.455 	 
H 	 -76.6714 	 55.4728 	 135.372 	 
C 	 -76.983 	 54.3882 	 138.082 	 
H 	 -75.9281 	 54.6222 	 138.259 	 
H 	 -77.3902 	 53.6677 	 138.86 	 
C 	 -77.853 	 55.618 	 138.266 	 
H 	 -77.8166 	 56.2258 	 137.291 	 
H 	 -77.4188 	 56.2579 	 139.094 	 
C 	 -79.3357 	 55.3148 	 138.507 	 
H 	 -79.7895 	 56.0826 	 139.107 	 
H 	 -79.27 	 54.4497 	 139.134 	 
H 	 -79.8359 	 55.0725 	 137.576 	 
H 	 -77.727 	 47.8245 	 138.469 	 
H 	 -77.1893 	 54.0863 	 133.379 	 
