34

S 	 36.6034 	 -1.98586 	 76.3622 	 
C 	 36.3754 	 -3.6571 	 75.8967 	 
C 	 35.1733 	 -3.74383 	 75.2481 	 
C 	 34.4833 	 -2.523 	 75.1251 	 
C 	 35.0495 	 -1.44522 	 75.7373 	 
H 	 33.575 	 -2.46147 	 74.5774 	 
C 	 34.7341 	 -5.06403 	 74.8653 	 
H 	 33.6554 	 -4.96793 	 75.0946 	 
H 	 35.0568 	 -5.72546 	 75.6626 	 
C 	 35.0611 	 -5.54013 	 73.5026 	 
H 	 36.1264 	 -5.48956 	 73.2558 	 
H 	 34.8286 	 -6.5617 	 73.6188 	 
C 	 34.1267 	 -5.0137 	 72.375 	 
H 	 33.1398 	 -4.90114 	 72.7402 	 
H 	 34.407 	 -4.06735 	 72.0734 	 
H 	 34.0419 	 -5.72498 	 71.5445 	 
S 	 33.6199 	 0.66137 	 74.5746 	 
C 	 33.4993 	 2.16542 	 75.4171 	 
C 	 34.0005 	 2.02232 	 76.6864 	 
C 	 34.5137 	 0.723216 	 77.025 	 
C 	 34.4404 	 -0.0948136 	 75.9045 	 
H 	 33.9856 	 2.87049 	 77.4661 	 
C 	 34.9941 	 0.292911 	 78.3872 	 
H 	 35.4161 	 -0.70172 	 78.3607 	 
H 	 34.1691 	 0.39581 	 79.0188 	 
C 	 36.1534 	 1.07794 	 78.9945 	 
H 	 35.7648 	 2.1321 	 79.0948 	 
H 	 37.1054 	 1.11469 	 78.3155 	 
C 	 36.5435 	 0.526953 	 80.4423 	 
H 	 36.0642 	 1.01725 	 81.3007 	 
H 	 37.5895 	 0.792683 	 80.7545 	 
H 	 36.3632 	 -0.531063 	 80.5396 	 
H 	 37.0874 	 -4.48318 	 75.9978 	 
H 	 32.9843 	 3.07415 	 75.0034 	 
