34

S 	 47.4929 	 12.7077 	 76.9998 	 
C 	 47.271 	 11.5185 	 78.2798 	 
C 	 47.8803 	 11.8594 	 79.4766 	 
C 	 48.549 	 13.0925 	 79.3903 	 
C 	 48.5145 	 13.6679 	 78.1278 	 
H 	 49.2958 	 13.5752 	 79.9645 	 
C 	 47.9373 	 10.9703 	 80.6653 	 
H 	 48.5378 	 11.5361 	 81.4648 	 
H 	 48.4964 	 10.1149 	 80.4499 	 
C 	 46.5454 	 10.4519 	 81.151 	 
H 	 46.0098 	 9.95143 	 80.3231 	 
H 	 46.697 	 9.61413 	 81.8664 	 
C 	 45.6687 	 11.5841 	 81.6888 	 
H 	 45.8775 	 11.9145 	 82.672 	 
H 	 45.8558 	 12.4441 	 81.1272 	 
H 	 44.6076 	 11.3906 	 81.658 	 
S 	 50.4252 	 14.8559 	 76.5019 	 
C 	 50.9131 	 16.5013 	 76.8709 	 
C 	 50.1943 	 16.9974 	 77.911 	 
C 	 49.2405 	 16.088 	 78.4366 	 
C 	 49.2176 	 14.8661 	 77.7839 	 
H 	 50.3925 	 18.0494 	 78.2721 	 
C 	 48.3757 	 16.4527 	 79.6172 	 
H 	 47.4751 	 15.8066 	 79.5734 	 
H 	 48.0958 	 17.5013 	 79.5513 	 
C 	 49.0594 	 16.3595 	 80.9916 	 
H 	 49.4632 	 15.3462 	 81.179 	 
H 	 48.3259 	 16.4941 	 81.7692 	 
C 	 50.2216 	 17.3367 	 81.2286 	 
H 	 50.0288 	 18.3372 	 81.0585 	 
H 	 51.1818 	 17.1268 	 80.752 	 
H 	 50.5169 	 17.2959 	 82.2767 	 
H 	 46.7019 	 10.6011 	 78.0743 	 
H 	 51.769 	 17.0092 	 76.3741 	 
