34

S 	 44.5541 	 21.2209 	 89.6116 	 
C 	 46.1749 	 21.8513 	 89.5361 	 
C 	 47.1993 	 20.9192 	 89.6283 	 
C 	 46.6093 	 19.618 	 89.6065 	 
C 	 45.2249 	 19.6678 	 89.4777 	 
H 	 47.1289 	 18.6527 	 89.6335 	 
C 	 48.681 	 21.168 	 89.8196 	 
H 	 48.846 	 21.4533 	 90.8554 	 
H 	 48.7973 	 22.0836 	 89.3271 	 
C 	 49.754 	 20.092 	 89.4131 	 
H 	 49.7229 	 19.1969 	 90.0153 	 
H 	 49.4653 	 19.8185 	 88.4534 	 
C 	 51.1751 	 20.6762 	 89.4015 	 
H 	 51.8481 	 20.0339 	 88.8548 	 
H 	 51.1949 	 21.664 	 88.9511 	 
H 	 51.6531 	 20.8828 	 90.4126 	 
S 	 43.0352 	 18.294 	 90.4574 	 
C 	 42.5413 	 16.8485 	 89.6292 	 
C 	 43.5167 	 16.4248 	 88.7812 	 
C 	 44.6651 	 17.2414 	 88.7036 	 
C 	 44.4243 	 18.483 	 89.3792 	 
H 	 43.3237 	 15.5775 	 88.1332 	 
C 	 45.7947 	 16.9263 	 87.7274 	 
H 	 46.489 	 17.7905 	 87.7377 	 
H 	 45.3846 	 16.8222 	 86.7211 	 
C 	 46.5338 	 15.6171 	 88.1109 	 
H 	 47.3502 	 15.4995 	 87.3464 	 
H 	 45.8641 	 14.782 	 87.9693 	 
C 	 47.0181 	 15.5778 	 89.6105 	 
H 	 46.1457 	 15.2465 	 90.2159 	 
H 	 47.3546 	 16.5237 	 89.962 	 
H 	 47.7011 	 14.6749 	 89.7511 	 
H 	 46.3985 	 22.8969 	 89.8241 	 
H 	 41.6084 	 16.4097 	 89.7958 	 
