34

S 	 30.4752 	 17.3065 	 68.8576 	 
C 	 29.8418 	 15.7099 	 69.2242 	 
C 	 30.5848 	 15.1332 	 70.238 	 
C 	 31.5248 	 16.0316 	 70.7955 	 
C 	 31.5664 	 17.2882 	 70.2846 	 
H 	 32.0539 	 16.0349 	 71.7596 	 
C 	 30.4638 	 13.6749 	 70.6975 	 
H 	 31.0944 	 13.5842 	 71.5666 	 
H 	 30.8044 	 13.049 	 69.887 	 
C 	 28.9585 	 13.2963 	 71.0593 	 
H 	 28.5779 	 14.0028 	 71.7712 	 
H 	 28.3498 	 13.3402 	 70.1366 	 
C 	 28.8346 	 11.8881 	 71.5798 	 
H 	 29.1654 	 11.7971 	 72.6029 	 
H 	 27.8176 	 11.4302 	 71.6455 	 
H 	 29.481 	 11.2215 	 70.9616 	 
S 	 31.7814 	 19.9943 	 70.7797 	 
C 	 33.2274 	 20.7567 	 71.1974 	 
C 	 34.297 	 19.8439 	 71.3113 	 
C 	 33.8001 	 18.4936 	 71.1093 	 
C 	 32.4716 	 18.3951 	 70.7525 	 
H 	 35.3238 	 20.1682 	 71.3705 	 
C 	 34.7981 	 17.3401 	 71.2409 	 
H 	 34.2654 	 16.5458 	 71.8284 	 
H 	 35.6333 	 17.7051 	 71.8638 	 
C 	 35.4352 	 16.8083 	 69.9505 	 
H 	 34.6086 	 16.4879 	 69.3182 	 
H 	 35.9619 	 15.964 	 70.177 	 
C 	 36.3318 	 17.8938 	 69.2624 	 
H 	 36.8338 	 18.4949 	 70.105 	 
H 	 35.7476 	 18.59 	 68.6563 	 
H 	 36.9603 	 17.5023 	 68.4694 	 
H 	 29.0642 	 15.1244 	 68.7179 	 
H 	 33.3281 	 21.8007 	 71.3905 	 
