34

S 	 -44.1511 	 27.8223 	 82.4484 	 
C 	 -44.3765 	 26.1996 	 82.9839 	 
C 	 -45.5663 	 25.6928 	 82.5958 	 
C 	 -46.333 	 26.5733 	 81.7336 	 
C 	 -45.6251 	 27.7449 	 81.5262 	 
H 	 -47.3279 	 26.4451 	 81.3378 	 
C 	 -46.0782 	 24.3951 	 83.0267 	 
H 	 -47.1633 	 24.4564 	 83.4273 	 
H 	 -45.5602 	 23.994 	 83.8817 	 
C 	 -46.0577 	 23.3851 	 81.9032 	 
H 	 -46.3565 	 22.3929 	 82.2575 	 
H 	 -46.7198 	 23.6391 	 81.1583 	 
C 	 -44.642 	 23.2431 	 81.3257 	 
H 	 -43.8172 	 23.1385 	 82.0649 	 
H 	 -44.6324 	 22.3558 	 80.7215 	 
H 	 -44.4147 	 24.0358 	 80.6265 	 
S 	 -47.3557 	 29.8926 	 81.2664 	 
C 	 -47.5102 	 30.67 	 79.7093 	 
C 	 -46.339 	 30.4428 	 78.9963 	 
C 	 -45.515 	 29.4055 	 79.5263 	 
C 	 -46.0282 	 28.8819 	 80.6998 	 
H 	 -46.1663 	 30.9973 	 78.0657 	 
C 	 -44.2536 	 28.9656 	 78.8127 	 
H 	 -43.8551 	 28.1749 	 79.4119 	 
H 	 -43.4987 	 29.8155 	 78.752 	 
C 	 -44.5324 	 28.3295 	 77.4406 	 
H 	 -45.0242 	 28.9722 	 76.7022 	 
H 	 -45.2413 	 27.475 	 77.6122 	 
C 	 -43.3269 	 27.5984 	 76.7932 	 
H 	 -43.6982 	 27.0629 	 75.8955 	 
H 	 -42.7988 	 26.8591 	 77.4665 	 
H 	 -42.5636 	 28.3739 	 76.454 	 
H 	 -43.6473 	 25.589 	 83.4663 	 
H 	 -48.2652 	 31.3299 	 79.3491 	 
