34

S 	 -52.614 	 14.3124 	 90.471 	 
C 	 -51.7955 	 15.8061 	 90.7383 	 
C 	 -50.669 	 15.8462 	 89.9237 	 
C 	 -50.5585 	 14.6857 	 89.0734 	 
C 	 -51.4491 	 13.6862 	 89.34 	 
H 	 -49.8371 	 14.5875 	 88.293 	 
C 	 -49.6516 	 17.0473 	 89.8506 	 
H 	 -49.9328 	 17.8588 	 90.4744 	 
H 	 -49.5686 	 17.5613 	 88.847 	 
C 	 -48.2529 	 16.6771 	 90.36 	 
H 	 -48.3738 	 16.1644 	 91.3119 	 
H 	 -47.828 	 15.9417 	 89.6537 	 
C 	 -47.3371 	 17.8775 	 90.325 	 
H 	 -47.1943 	 18.3453 	 89.3564 	 
H 	 -47.6812 	 18.6808 	 91.004 	 
H 	 -46.3206 	 17.7071 	 90.5812 	 
S 	 -51.9304 	 11.0238 	 89.8292 	 
C 	 -51.8253 	 9.90386 	 88.5065 	 
C 	 -51.6517 	 10.5117 	 87.3097 	 
C 	 -51.4596 	 11.9576 	 87.4421 	 
C 	 -51.5589 	 12.3396 	 88.7497 	 
H 	 -51.6549 	 9.95939 	 86.3741 	 
C 	 -51.1836 	 12.8581 	 86.1414 	 
H 	 -51.0762 	 12.1638 	 85.3715 	 
H 	 -50.2398 	 13.4106 	 86.2356 	 
C 	 -52.358 	 13.8667 	 85.8835 	 
H 	 -51.9233 	 14.7277 	 85.2627 	 
H 	 -52.6093 	 14.3067 	 86.8359 	 
C 	 -53.6495 	 13.1404 	 85.3562 	 
H 	 -54.0118 	 12.3564 	 86.0569 	 
H 	 -53.5021 	 12.6858 	 84.3741 	 
H 	 -54.5069 	 13.8053 	 85.2196 	 
H 	 -52.0362 	 16.5915 	 91.5074 	 
H 	 -51.7199 	 8.80527 	 88.6612 	 
