34

S 	 43.891 	 10.7404 	 89.11 	 
C 	 44.5125 	 10.0366 	 90.5402 	 
C 	 45.0776 	 10.9631 	 91.4156 	 
C 	 45.0129 	 12.294 	 90.8608 	 
C 	 44.3277 	 12.3596 	 89.646 	 
H 	 45.3526 	 13.2593 	 91.2198 	 
C 	 45.6192 	 10.6248 	 92.786 	 
H 	 45.1854 	 9.59967 	 92.9059 	 
H 	 45.2418 	 11.3765 	 93.4698 	 
C 	 47.1077 	 10.5914 	 92.9071 	 
H 	 47.2544 	 10.1814 	 93.9138 	 
H 	 47.4542 	 9.84966 	 92.2092 	 
C 	 47.8899 	 11.8677 	 92.6573 	 
H 	 47.6497 	 12.654 	 93.3941 	 
H 	 48.9694 	 11.6525 	 92.7161 	 
H 	 47.6829 	 12.3915 	 91.6719 	 
S 	 45.4703 	 14.3245 	 88.1604 	 
C 	 44.4624 	 15.5001 	 87.3609 	 
C 	 43.1457 	 15.2589 	 87.5474 	 
C 	 42.8778 	 14.0397 	 88.2526 	 
C 	 44.0917 	 13.5729 	 88.8416 	 
H 	 42.5408 	 15.8302 	 86.916 	 
C 	 41.5109 	 13.6027 	 88.6139 	 
H 	 41.4135 	 12.4667 	 88.5518 	 
H 	 40.885 	 13.9898 	 87.7438 	 
C 	 40.8963 	 14.1812 	 89.8222 	 
H 	 40.8398 	 15.2912 	 89.7427 	 
H 	 41.6153 	 14.014 	 90.66 	 
C 	 39.5136 	 13.6214 	 90.1159 	 
H 	 38.7586 	 13.949 	 89.3195 	 
H 	 39.2456 	 13.7154 	 91.1208 	 
H 	 39.6583 	 12.5185 	 90.0737 	 
H 	 44.3265 	 9.02251 	 90.7166 	 
H 	 44.8963 	 16.2589 	 86.7798 	 
