34

S 	 56.9054 	 13.3014 	 54.7679 	 
C 	 56.0913 	 14.7863 	 54.1905 	 
C 	 56.9253 	 15.5047 	 53.2883 	 
C 	 57.9412 	 14.6698 	 52.8582 	 
C 	 58.0629 	 13.4469 	 53.5029 	 
H 	 58.616 	 14.9043 	 52.1071 	 
C 	 56.6109 	 16.8475 	 52.6157 	 
H 	 55.7798 	 16.6887 	 51.9068 	 
H 	 57.457 	 17.2189 	 52.0892 	 
C 	 56.2293 	 17.9008 	 53.6423 	 
H 	 55.1947 	 17.6596 	 54.0011 	 
H 	 56.962 	 17.926 	 54.4027 	 
C 	 56.2066 	 19.3017 	 53.0286 	 
H 	 55.7373 	 20.0112 	 53.7147 	 
H 	 57.2528 	 19.695 	 52.8726 	 
H 	 55.7681 	 19.2952 	 52.0283 	 
S 	 59.4887 	 11.3758 	 54.476 	 
C 	 60.3874 	 10.3444 	 53.3802 	 
C 	 60.2317 	 10.7316 	 52.0493 	 
C 	 59.2724 	 11.8116 	 51.8562 	 
C 	 58.9238 	 12.3501 	 53.0915 	 
H 	 60.6355 	 10.0612 	 51.3078 	 
C 	 58.6873 	 12.3287 	 50.489 	 
H 	 59.4683 	 12.1324 	 49.7732 	 
H 	 58.5769 	 13.3959 	 50.5225 	 
C 	 57.3634 	 11.6758 	 50.0001 	 
H 	 57.6122 	 10.576 	 49.8853 	 
H 	 57.1439 	 11.9646 	 48.9583 	 
C 	 56.0873 	 12.0443 	 50.8272 	 
H 	 56.0167 	 13.166 	 50.8847 	 
H 	 56.2245 	 11.5994 	 51.815 	 
H 	 55.224 	 11.7378 	 50.3628 	 
H 	 55.1705 	 15.1406 	 54.6243 	 
H 	 60.9434 	 9.47902 	 53.7419 	 
