34

S 	 -1.75117 	 29.7778 	 45.0446 	 
C 	 -1.73666 	 28.9459 	 43.5491 	 
C 	 -0.604657 	 29.2708 	 42.7693 	 
C 	 0.150122 	 30.3418 	 43.3767 	 
C 	 -0.306706 	 30.6146 	 44.6845 	 
H 	 1.01793 	 30.8346 	 43.0396 	 
C 	 -0.284644 	 28.8415 	 41.3115 	 
H 	 -1.01113 	 28.0356 	 40.9476 	 
H 	 0.71878 	 28.4902 	 41.2378 	 
C 	 -0.425482 	 30.0201 	 40.3096 	 
H 	 -1.36391 	 30.4523 	 40.5035 	 
H 	 0.37551 	 30.8517 	 40.3108 	 
C 	 -0.51157 	 29.5641 	 38.879 	 
H 	 0.268221 	 28.8293 	 38.5246 	 
H 	 -1.47738 	 29.0474 	 38.5673 	 
H 	 -0.527966 	 30.4433 	 38.2821 	 
S 	 -1.1835 	 32.5133 	 46.4892 	 
C 	 -0.0268875 	 33.6017 	 47.3081 	 
C 	 1.25441 	 33.2017 	 46.9935 	 
C 	 1.34426 	 32.0413 	 46.165 	 
C 	 0.146143 	 31.6777 	 45.5673 	 
H 	 2.13733 	 33.7335 	 47.4232 	 
C 	 2.6961 	 31.4867 	 45.6639 	 
H 	 3.1107 	 32.3739 	 45.097 	 
H 	 2.54988 	 30.5947 	 44.995 	 
C 	 3.87676 	 31.3979 	 46.7002 	 
H 	 3.59009 	 30.8116 	 47.5851 	 
H 	 4.18714 	 32.4227 	 46.9895 	 
C 	 5.16464 	 30.7153 	 46.2094 	 
H 	 5.11261 	 29.6252 	 46.102 	 
H 	 5.92101 	 31.0423 	 46.9173 	 
H 	 5.37822 	 31.1617 	 45.2199 	 
H 	 -2.33556 	 28.0822 	 43.1994 	 
H 	 -0.186523 	 34.3447 	 48.0851 	 
