34

S 	 -3.96354 	 76.6592 	 46.2466 	 
C 	 -4.2277 	 74.9745 	 46.3501 	 
C 	 -3.52167 	 74.292 	 45.3749 	 
C 	 -2.75097 	 75.1571 	 44.6081 	 
C 	 -2.80224 	 76.4721 	 44.99 	 
H 	 -2.12279 	 74.8441 	 43.7683 	 
C 	 -3.51319 	 72.7786 	 45.302 	 
H 	 -3.72177 	 72.2545 	 44.3955 	 
H 	 -4.16781 	 72.4739 	 46.1234 	 
C 	 -2.0848 	 72.2215 	 45.6001 	 
H 	 -2.1532 	 71.1 	 45.6523 	 
H 	 -1.42175 	 72.4985 	 44.7559 	 
C 	 -1.40644 	 72.7167 	 46.9038 	 
H 	 -2.06284 	 72.8607 	 47.7614 	 
H 	 -0.59219 	 72.1639 	 47.283 	 
H 	 -0.990976 	 73.7213 	 46.8056 	 
S 	 -3.32151 	 78.8462 	 43.8652 	 
C 	 -2.1379 	 79.6461 	 42.8367 	 
C 	 -0.962144 	 78.9209 	 42.8208 	 
C 	 -0.978974 	 77.7581 	 43.6747 	 
C 	 -2.17822 	 77.6189 	 44.3001 	 
H 	 -0.184245 	 79.3093 	 42.2016 	 
C 	 0.196001 	 76.7572 	 43.7561 	 
H 	 1.09769 	 76.9249 	 43.1826 	 
H 	 -0.0547953 	 75.7594 	 43.3626 	 
C 	 0.769261 	 76.5701 	 45.1557 	 
H 	 1.321 	 75.643 	 45.2464 	 
H 	 0.047016 	 76.5335 	 46.0124 	 
C 	 1.85637 	 77.6027 	 45.4378 	 
H 	 2.36214 	 77.4676 	 46.4714 	 
H 	 1.50396 	 78.6251 	 45.362 	 
H 	 2.68049 	 77.6114 	 44.7351 	 
H 	 -4.86849 	 74.4873 	 47.0634 	 
H 	 -2.20772 	 80.5768 	 42.3444 	 
