34

S 	 -43.6716 	 40.7246 	 85.0664 	 
C 	 -44.7976 	 40.5782 	 86.3863 	 
C 	 -45.521 	 39.409 	 86.3628 	 
C 	 -45.2648 	 38.6138 	 85.1752 	 
C 	 -44.2721 	 39.1729 	 84.3753 	 
H 	 -45.8349 	 37.8276 	 84.7742 	 
C 	 -46.8032 	 39.159 	 87.0931 	 
H 	 -46.7263 	 39.0066 	 88.1862 	 
H 	 -47.0557 	 38.1719 	 86.7643 	 
C 	 -47.9265 	 40.1093 	 86.5941 	 
H 	 -48.8506 	 39.8474 	 87.1018 	 
H 	 -47.698 	 41.1729 	 86.8975 	 
C 	 -48.1515 	 40.1483 	 85.0462 	 
H 	 -49.1894 	 40.5462 	 84.8047 	 
H 	 -47.5398 	 40.8895 	 84.6165 	 
H 	 -48.0573 	 39.1324 	 84.532 	 
S 	 -42.1502 	 38.533 	 82.7218 	 
C 	 -42.5107 	 37.8093 	 81.1569 	 
C 	 -43.8364 	 37.9079 	 80.814 	 
C 	 -44.6371 	 38.3441 	 81.9451 	 
C 	 -43.8788 	 38.6264 	 83.0625 	 
H 	 -44.2267 	 37.7579 	 79.8078 	 
C 	 -46.1118 	 38.6321 	 81.8173 	 
H 	 -46.425 	 37.9469 	 82.6481 	 
H 	 -46.5127 	 38.2086 	 80.8384 	 
C 	 -46.7026 	 40.0661 	 82.059 	 
H 	 -46.2633 	 40.556 	 82.9308 	 
H 	 -47.7314 	 39.9036 	 82.1825 	 
C 	 -46.3944 	 41.0182 	 80.8552 	 
H 	 -45.3338 	 41.1211 	 80.7103 	 
H 	 -46.8099 	 41.9989 	 81.0558 	 
H 	 -46.8503 	 40.5996 	 79.9603 	 
H 	 -45.0774 	 41.4374 	 87.0474 	 
H 	 -41.7604 	 37.4769 	 80.5169 	 
