34

S 	 -47.1263 	 29.4134 	 90.6217 	 
C 	 -48.6119 	 29.1267 	 91.4361 	 
C 	 -49.4972 	 30.1861 	 91.4283 	 
C 	 -48.8898 	 31.2731 	 90.7173 	 
C 	 -47.6333 	 31.0227 	 90.1845 	 
H 	 -49.3416 	 32.2695 	 90.4692 	 
C 	 -50.9134 	 30.2349 	 92.0921 	 
H 	 -51.4728 	 31.06 	 91.6373 	 
H 	 -50.8381 	 30.3462 	 93.1474 	 
C 	 -51.6989 	 28.9358 	 91.7898 	 
H 	 -51.7614 	 28.8115 	 90.7096 	 
H 	 -51.227 	 28.0625 	 92.2309 	 
C 	 -53.1606 	 28.9974 	 92.3912 	 
H 	 -53.9617 	 28.4391 	 91.8643 	 
H 	 -53.092 	 28.6715 	 93.3683 	 
H 	 -53.4999 	 30.0152 	 92.4349 	 
S 	 -46.2048 	 31.3882 	 87.8344 	 
C 	 -45.4833 	 32.881 	 87.4774 	 
C 	 -45.9495 	 33.8119 	 88.3401 	 
C 	 -46.6275 	 33.2571 	 89.5027 	 
C 	 -46.8492 	 31.9112 	 89.3955 	 
H 	 -45.6376 	 34.7634 	 88.2127 	 
C 	 -47.025 	 34.1078 	 90.7136 	 
H 	 -46.2262 	 34.7835 	 90.9876 	 
H 	 -47.1097 	 33.4049 	 91.5429 	 
C 	 -48.3372 	 34.9596 	 90.5875 	 
H 	 -49.1721 	 34.3878 	 90.0486 	 
H 	 -48.165 	 35.9341 	 90.0592 	 
C 	 -49.0189 	 35.2256 	 91.9301 	 
H 	 -48.3229 	 35.4094 	 92.7225 	 
H 	 -49.5728 	 34.3089 	 92.2076 	 
H 	 -49.8119 	 36.0168 	 91.9835 	 
H 	 -48.8913 	 28.1368 	 91.7954 	 
H 	 -45.3167 	 33.1548 	 86.4623 	 
