34

S 	 44.0177 	 14.5359 	 87.1068 	 
C 	 45.1848 	 14.4513 	 85.7909 	 
C 	 44.7999 	 13.7561 	 84.7371 	 
C 	 43.5732 	 13.0699 	 85.0337 	 
C 	 43.0106 	 13.3061 	 86.3105 	 
H 	 42.9751 	 12.4492 	 84.4436 	 
C 	 45.4775 	 13.6385 	 83.4216 	 
H 	 45.6043 	 14.6632 	 83.0965 	 
H 	 44.7971 	 13.2161 	 82.6971 	 
C 	 46.6246 	 12.6541 	 83.3845 	 
H 	 46.273 	 11.6828 	 83.7952 	 
H 	 46.9038 	 12.5207 	 82.3329 	 
C 	 47.9587 	 13.138 	 84.0841 	 
H 	 48.369 	 12.3596 	 84.7328 	 
H 	 48.7607 	 13.4608 	 83.4271 	 
H 	 47.9415 	 14.0746 	 84.7099 	 
S 	 40.8056 	 13.8588 	 88.021 	 
C 	 39.3175 	 12.9876 	 87.8459 	 
C 	 39.5263 	 11.9341 	 86.9493 	 
C 	 40.8244 	 11.8809 	 86.3871 	 
C 	 41.6976 	 12.9158 	 86.8017 	 
H 	 38.6483 	 11.3683 	 86.8141 	 
C 	 41.1634 	 10.8393 	 85.3742 	 
H 	 40.5097 	 9.95282 	 85.5367 	 
H 	 42.2272 	 10.525 	 85.3736 	 
C 	 40.774 	 11.1799 	 83.9385 	 
H 	 40.7886 	 12.2157 	 83.6797 	 
H 	 39.7108 	 11.1161 	 83.8466 	 
C 	 41.423 	 10.1987 	 82.9092 	 
H 	 41.2515 	 9.18275 	 83.1863 	 
H 	 42.4949 	 10.4466 	 82.7657 	 
H 	 41.0147 	 10.2252 	 82.0058 	 
H 	 46.0753 	 15.0345 	 85.6293 	 
H 	 38.4535 	 12.9858 	 88.4825 	 
