34

S 	 4.76404 	 -13.8591 	 87.2803 	 
C 	 3.72423 	 -13.8202 	 88.6956 	 
C 	 4.03418 	 -14.8174 	 89.6221 	 
C 	 5.06277 	 -15.6062 	 89.0485 	 
C 	 5.55166 	 -15.2622 	 87.8535 	 
H 	 5.55099 	 -16.4314 	 89.5222 	 
C 	 3.40015 	 -14.8667 	 90.9947 	 
H 	 2.41152 	 -14.5284 	 90.8088 	 
H 	 3.99944 	 -14.287 	 91.747 	 
C 	 3.47871 	 -16.301 	 91.5918 	 
H 	 3.30121 	 -16.9628 	 90.7937 	 
H 	 4.52069 	 -16.472 	 91.9648 	 
C 	 2.58597 	 -16.5202 	 92.8125 	 
H 	 2.5917 	 -15.7173 	 93.5989 	 
H 	 1.57979 	 -16.4284 	 92.4153 	 
H 	 2.73355 	 -17.4711 	 93.3227 	 
S 	 8.03039 	 -15.2003 	 86.7308 	 
C 	 8.46901 	 -16.5096 	 85.5923 	 
C 	 7.47961 	 -17.4643 	 85.501 	 
C 	 6.38093 	 -17.1937 	 86.3526 	 
C 	 6.51663 	 -15.9644 	 86.9869 	 
H 	 7.57402 	 -18.3264 	 84.835 	 
C 	 5.21084 	 -18.1619 	 86.377 	 
H 	 4.98294 	 -18.4322 	 87.394 	 
H 	 5.55014 	 -19.1171 	 86.0064 	 
C 	 3.97173 	 -17.4931 	 85.5853 	 
H 	 4.21602 	 -17.3822 	 84.5451 	 
H 	 3.75502 	 -16.4278 	 85.869 	 
C 	 2.7552 	 -18.3701 	 85.7395 	 
H 	 2.00141 	 -18.0934 	 85.1026 	 
H 	 2.33611 	 -18.298 	 86.7551 	 
H 	 3.02012 	 -19.3672 	 85.3818 	 
H 	 2.99619 	 -12.9756 	 88.926 	 
H 	 9.30319 	 -16.5914 	 84.9909 	 
