34

S 	 -69.5446 	 33.9782 	 120.714 	 
C 	 -68.5287 	 34.8059 	 121.912 	 
C 	 -68.9049 	 36.1533 	 122 	 
C 	 -70.2267 	 36.3441 	 121.47 	 
C 	 -70.6903 	 35.2308 	 120.786 	 
H 	 -70.8378 	 37.2723 	 121.348 	 
C 	 -68.1127 	 37.3458 	 122.56 	 
H 	 -67.3581 	 37.0429 	 123.266 	 
H 	 -68.8221 	 38.0062 	 123.071 	 
C 	 -67.6706 	 38.4796 	 121.613 	 
H 	 -67.5378 	 39.4541 	 122.173 	 
H 	 -66.6587 	 38.2723 	 121.21 	 
C 	 -68.5827 	 38.9176 	 120.483 	 
H 	 -68.7418 	 38.1428 	 119.722 	 
H 	 -69.5468 	 39.2869 	 120.764 	 
H 	 -68.0762 	 39.7238 	 119.856 	 
S 	 -71.8685 	 36.3677 	 118.67 	 
C 	 -73.2266 	 35.5146 	 117.858 	 
C 	 -73.7166 	 34.4845 	 118.574 	 
C 	 -72.8825 	 34.2571 	 119.751 	 
C 	 -71.8942 	 35.1589 	 119.924 	 
H 	 -74.4811 	 33.8296 	 118.102 	 
C 	 -73.1444 	 33.0612 	 120.596 	 
H 	 -74.2371 	 32.9706 	 120.73 	 
H 	 -72.5993 	 33.1874 	 121.527 	 
C 	 -72.5038 	 31.7947 	 120.049 	 
H 	 -71.4628 	 32.0793 	 119.838 	 
H 	 -72.867 	 31.5433 	 119.043 	 
C 	 -72.5465 	 30.6084 	 120.965 	 
H 	 -72.3599 	 29.6738 	 120.383 	 
H 	 -73.5242 	 30.512 	 121.436 	 
H 	 -71.7427 	 30.5923 	 121.72 	 
H 	 -67.6331 	 34.4893 	 122.386 	 
H 	 -73.9411 	 35.8197 	 117.07 	 
