34

S 	 -67.8167 	 36.9852 	 138.307 	 
C 	 -69.0327 	 35.9176 	 138.883 	 
C 	 -68.6839 	 35.3005 	 140.095 	 
C 	 -67.446 	 35.8481 	 140.597 	 
C 	 -66.8546 	 36.7455 	 139.754 	 
H 	 -66.9948 	 35.5753 	 141.547 	 
C 	 -69.5206 	 34.1694 	 140.728 	 
H 	 -70.1922 	 33.7803 	 140.005 	 
H 	 -70.2054 	 34.64 	 141.456 	 
C 	 -68.5485 	 33.0726 	 141.326 	 
H 	 -67.6064 	 32.8299 	 140.764 	 
H 	 -68.2077 	 33.5016 	 142.216 	 
C 	 -69.2377 	 31.6824 	 141.636 	 
H 	 -70.3463 	 31.7143 	 141.805 	 
H 	 -69.0214 	 31.1009 	 140.768 	 
H 	 -68.7488 	 31.2085 	 142.452 	 
S 	 -65.4886 	 38.7386 	 141.083 	 
C 	 -63.8322 	 38.9479 	 141.013 	 
C 	 -63.3586 	 38.0491 	 140.113 	 
C 	 -64.3495 	 37.3138 	 139.379 	 
C 	 -65.5922 	 37.4762 	 139.943 	 
H 	 -62.3521 	 38.1436 	 139.868 	 
C 	 -64.179 	 36.4797 	 138.195 	 
H 	 -65.0875 	 35.9382 	 137.97 	 
H 	 -63.3887 	 35.6807 	 138.426 	 
C 	 -63.794 	 37.1283 	 136.904 	 
H 	 -63.3999 	 36.383 	 136.245 	 
H 	 -62.9833 	 37.8334 	 137.115 	 
C 	 -64.9432 	 37.6617 	 136.065 	 
H 	 -64.9642 	 38.7055 	 136.166 	 
H 	 -65.8198 	 37.0755 	 136.065 	 
H 	 -64.4576 	 37.4771 	 135.021 	 
H 	 -69.8433 	 35.5246 	 138.311 	 
H 	 -63.235 	 39.6921 	 141.496 	 
