34

S 	 -9.56044 	 46.0218 	 42.7319 	 
C 	 -10.5277 	 47.0466 	 43.8237 	 
C 	 -10.015 	 48.3407 	 43.6378 	 
C 	 -9.16346 	 48.4934 	 42.4908 	 
C 	 -8.74358 	 47.3183 	 41.8965 	 
H 	 -8.78057 	 49.4958 	 42.2931 	 
C 	 -10.4859 	 49.5438 	 44.4825 	 
H 	 -10.2423 	 49.3366 	 45.5529 	 
H 	 -11.5481 	 49.5609 	 44.5395 	 
C 	 -9.94189 	 50.9286 	 43.991 	 
H 	 -10.0564 	 51.6611 	 44.781 	 
H 	 -8.8407 	 50.9535 	 44.0673 	 
C 	 -10.6221 	 51.5025 	 42.7827 	 
H 	 -10.6742 	 52.6402 	 42.906 	 
H 	 -10.3732 	 51.167 	 41.8016 	 
H 	 -11.6984 	 51.1696 	 42.7444 	 
S 	 -6.63884 	 45.7971 	 41.3751 	 
C 	 -5.60362 	 46.1908 	 40.0118 	 
C 	 -5.95565 	 47.3966 	 39.3972 	 
C 	 -7.23403 	 47.8542 	 39.8978 	 
C 	 -7.63445 	 47.1364 	 40.9578 	 
H 	 -5.39947 	 47.8312 	 38.5809 	 
C 	 -7.88004 	 49.1502 	 39.4343 	 
H 	 -8.91339 	 49.1626 	 39.5828 	 
H 	 -7.73582 	 48.9886 	 38.3467 	 
C 	 -7.36593 	 50.554 	 39.7845 	 
H 	 -6.29381 	 50.455 	 39.9042 	 
H 	 -7.70045 	 50.8626 	 40.7706 	 
C 	 -7.93172 	 51.5946 	 38.778 	 
H 	 -7.78058 	 52.5701 	 39.2239 	 
H 	 -8.95665 	 51.3423 	 38.7056 	 
H 	 -7.5793 	 51.4549 	 37.7274 	 
H 	 -11.0356 	 46.8517 	 44.7581 	 
H 	 -4.75164 	 45.6175 	 39.5497 	 
