34

S 	 37.4522 	 13.084 	 80.1522 	 
C 	 37.3125 	 12.6772 	 78.4158 	 
C 	 37.9831 	 13.6044 	 77.6353 	 
C 	 38.4408 	 14.7581 	 78.337 	 
C 	 38.2754 	 14.608 	 79.7407 	 
H 	 39.0834 	 15.5313 	 77.923 	 
C 	 38.0972 	 13.5016 	 76.1051 	 
H 	 38.2005 	 14.5161 	 75.6984 	 
H 	 37.1999 	 13.1192 	 75.6952 	 
C 	 39.1775 	 12.4796 	 75.6023 	 
H 	 40.1098 	 12.9042 	 75.9647 	 
H 	 39.1678 	 11.4983 	 76.0333 	 
C 	 39.221 	 12.3509 	 74.0812 	 
H 	 39.1149 	 13.3008 	 73.599 	 
H 	 40.1192 	 11.8494 	 73.641 	 
H 	 38.3862 	 11.7355 	 73.7178 	 
S 	 37.7052 	 15.914 	 82.1571 	 
C 	 38.9107 	 16.8749 	 82.9297 	 
C 	 40.0644 	 16.9603 	 82.2173 	 
C 	 39.9333 	 16.2336 	 80.9556 	 
C 	 38.7682 	 15.5083 	 80.7826 	 
H 	 40.8823 	 17.6463 	 82.5566 	 
C 	 41.0952 	 16.3637 	 79.9425 	 
H 	 41.5667 	 17.2645 	 80.1589 	 
H 	 40.6544 	 16.4305 	 78.9226 	 
C 	 42.0387 	 15.1979 	 79.9723 	 
H 	 41.6416 	 14.2569 	 79.7092 	 
H 	 42.2866 	 15.061 	 81.0378 	 
C 	 43.4508 	 15.4657 	 79.2624 	 
H 	 43.9613 	 16.2598 	 79.7156 	 
H 	 43.4423 	 15.8974 	 78.2524 	 
H 	 44.1449 	 14.6234 	 79.2917 	 
H 	 36.9545 	 11.6418 	 78.1153 	 
H 	 38.7722 	 17.3931 	 83.9182 	 
