34

S 	 -4.81442 	 10.5215 	 80.5088 	 
C 	 -6.51242 	 10.1115 	 80.0699 	 
C 	 -7.16274 	 11.2997 	 79.8532 	 
C 	 -6.39097 	 12.4865 	 80.1868 	 
C 	 -5.07583 	 12.2222 	 80.119 	 
H 	 -6.83202 	 13.4794 	 80.2536 	 
C 	 -8.59513 	 11.402 	 79.56 	 
H 	 -9.11125 	 11.8884 	 80.3575 	 
H 	 -8.98587 	 10.3628 	 79.3728 	 
C 	 -8.85403 	 11.9958 	 78.1226 	 
H 	 -9.88119 	 11.741 	 77.7784 	 
H 	 -8.77819 	 13.1175 	 78.1766 	 
C 	 -7.83729 	 11.4937 	 77.0711 	 
H 	 -6.85211 	 12.041 	 77.0543 	 
H 	 -7.58824 	 10.3616 	 77.0851 	 
H 	 -8.24108 	 11.5825 	 76.0647 	 
S 	 -2.62392 	 12.6256 	 81.2355 	 
C 	 -2.00137 	 14.2829 	 81.4464 	 
C 	 -2.75528 	 15.2011 	 80.7716 	 
C 	 -3.93142 	 14.5708 	 80.1313 	 
C 	 -4.00906 	 13.2135 	 80.3813 	 
H 	 -2.57652 	 16.2829 	 80.8219 	 
C 	 -4.96517 	 15.3605 	 79.346 	 
H 	 -5.79989 	 15.7529 	 80.0165 	 
H 	 -5.4435 	 14.8099 	 78.5762 	 
C 	 -4.43991 	 16.7407 	 78.7942 	 
H 	 -3.50833 	 16.6751 	 78.1982 	 
H 	 -4.16832 	 17.4861 	 79.5545 	 
C 	 -5.51216 	 17.4033 	 77.9134 	 
H 	 -5.6473 	 16.8868 	 76.9383 	 
H 	 -5.20459 	 18.4379 	 77.6503 	 
H 	 -6.46269 	 17.4899 	 78.4162 	 
H 	 -6.91773 	 9.10283 	 80.08 	 
H 	 -1.16594 	 14.5729 	 82.0611 	 
