34

S 	 4.88421 	 -13.7111 	 60.9484 	 
C 	 4.04024 	 -12.7165 	 62.188 	 
C 	 2.7242 	 -13.059 	 62.2426 	 
C 	 2.39438 	 -13.8401 	 61.0785 	 
C 	 3.41593 	 -14.2045 	 60.1904 	 
H 	 1.42239 	 -14.2544 	 60.838 	 
C 	 1.82315 	 -12.4798 	 63.3083 	 
H 	 0.998631 	 -11.9386 	 62.8128 	 
H 	 2.33017 	 -11.6857 	 63.7547 	 
C 	 1.23555 	 -13.3886 	 64.2971 	 
H 	 0.739728 	 -14.2551 	 63.8091 	 
H 	 2.07294 	 -13.9149 	 64.7639 	 
C 	 0.425213 	 -12.749 	 65.4371 	 
H 	 -0.449083 	 -12.2187 	 65.0394 	 
H 	 0.073243 	 -13.4749 	 66.0946 	 
H 	 0.976711 	 -11.9493 	 66.0656 	 
S 	 3.60883 	 -14.2233 	 57.4257 	 
C 	 3.42544 	 -15.6868 	 56.526 	 
C 	 3.07515 	 -16.69 	 57.3816 	 
C 	 3.08079 	 -16.3345 	 58.737 	 
C 	 3.38919 	 -15.0235 	 58.9781 	 
H 	 2.8966 	 -17.672 	 56.9702 	 
C 	 2.73589 	 -17.2892 	 59.8671 	 
H 	 2.30174 	 -18.1859 	 59.5227 	 
H 	 2.05813 	 -16.8755 	 60.5828 	 
C 	 3.94001 	 -17.6373 	 60.8188 	 
H 	 4.54621 	 -16.6965 	 60.9695 	 
H 	 4.71898 	 -18.1435 	 60.3412 	 
C 	 3.44903 	 -18.4502 	 62.0654 	 
H 	 3.07554 	 -19.4268 	 61.7834 	 
H 	 2.65372 	 -17.9914 	 62.6474 	 
H 	 4.26685 	 -18.5608 	 62.7601 	 
H 	 4.55982 	 -12.2008 	 62.9506 	 
H 	 3.66886 	 -15.8611 	 55.4342 	 
