34

S 	 -3.96488 	 13.0747 	 83.9858 	 
C 	 -5.03953 	 12.008 	 83.063 	 
C 	 -6.29504 	 12.0537 	 83.5589 	 
C 	 -6.44502 	 12.9225 	 84.6493 	 
C 	 -5.25263 	 13.5787 	 85.039 	 
H 	 -7.3318 	 13.074 	 85.2631 	 
C 	 -7.33621 	 11.1051 	 83.0143 	 
H 	 -7.30723 	 10.8941 	 81.8998 	 
H 	 -8.23276 	 11.7061 	 83.1601 	 
C 	 -7.33707 	 9.7344 	 83.6964 	 
H 	 -7.78339 	 9.00591 	 82.9572 	 
H 	 -6.33119 	 9.2808 	 83.7726 	 
C 	 -7.95487 	 9.84715 	 85.042 	 
H 	 -8.81133 	 10.45 	 85.0476 	 
H 	 -8.36004 	 8.92706 	 85.4343 	 
H 	 -7.28787 	 10.317 	 85.7936 	 
S 	 -6.14602 	 15.9492 	 86.173 	 
C 	 -5.28675 	 16.5646 	 87.5835 	 
C 	 -4.29785 	 15.7041 	 87.9608 	 
C 	 -4.26194 	 14.4238 	 87.1888 	 
C 	 -5.14244 	 14.5208 	 86.0921 	 
H 	 -3.72743 	 15.8865 	 88.7828 	 
C 	 -3.24353 	 13.4058 	 87.4321 	 
H 	 -2.28383 	 13.9046 	 87.3446 	 
H 	 -3.28697 	 12.5842 	 86.7214 	 
C 	 -3.22083 	 12.882 	 88.8887 	 
H 	 -3.11654 	 13.6947 	 89.5889 	 
H 	 -2.2534 	 12.354 	 88.9284 	 
C 	 -4.36343 	 11.9111 	 89.0814 	 
H 	 -4.42085 	 11.5457 	 90.09 	 
H 	 -4.43349 	 11.0608 	 88.3583 	 
H 	 -5.34698 	 12.373 	 88.971 	 
H 	 -4.64797 	 11.4144 	 82.2113 	 
H 	 -5.3074 	 17.6255 	 88.0319 	 
