34

S 	 -11.1547 	 50.2241 	 31.3131 	 
C 	 -10.2297 	 49.3397 	 30.1752 	 
C 	 -8.98153 	 49.8308 	 30.0965 	 
C 	 -8.65977 	 50.8015 	 31.0499 	 
C 	 -9.76121 	 51.1369 	 31.8144 	 
H 	 -7.69513 	 51.2719 	 31.1835 	 
C 	 -7.94948 	 49.2877 	 29.1529 	 
H 	 -8.32201 	 49.2767 	 28.1241 	 
H 	 -7.86877 	 48.2688 	 29.4295 	 
C 	 -6.51017 	 49.8705 	 29.1856 	 
H 	 -6.73005 	 50.8923 	 29.1433 	 
H 	 -6.06271 	 49.7188 	 30.1634 	 
C 	 -5.54486 	 49.3369 	 28.0504 	 
H 	 -4.55912 	 49.8435 	 28.1174 	 
H 	 -5.33377 	 48.282 	 28.218 	 
H 	 -6.03325 	 49.374 	 27.0528 	 
S 	 -10.4562 	 53.6942 	 32.3191 	 
C 	 -10.3918 	 54.2565 	 33.9884 	 
C 	 -9.76338 	 53.3587 	 34.797 	 
C 	 -9.42046 	 52.1431 	 34.1571 	 
C 	 -9.82759 	 52.1441 	 32.8479 	 
H 	 -9.54457 	 53.6206 	 35.865 	 
C 	 -8.86806 	 51.0101 	 34.8964 	 
H 	 -8.17471 	 51.3098 	 35.7299 	 
H 	 -8.16607 	 50.5719 	 34.1765 	 
C 	 -9.90811 	 50.1432 	 35.5206 	 
H 	 -9.4301 	 49.1913 	 35.7835 	 
H 	 -10.6469 	 49.8781 	 34.7559 	 
C 	 -10.628 	 50.8008 	 36.6808 	 
H 	 -11.3015 	 50.0782 	 37.1708 	 
H 	 -11.2807 	 51.6233 	 36.3045 	 
H 	 -9.95387 	 51.1612 	 37.3774 	 
H 	 -10.5558 	 48.4434 	 29.6858 	 
H 	 -10.5752 	 55.2448 	 34.2788 	 
