34

S 	 -46.2375 	 38.4293 	 82.6231 	 
C 	 -46.9293 	 38.0261 	 84.1928 	 
C 	 -46.0164 	 38.306 	 85.1463 	 
C 	 -45.0396 	 39.2242 	 84.6684 	 
C 	 -44.9586 	 39.3674 	 83.3078 	 
H 	 -44.247 	 39.5768 	 85.3326 	 
C 	 -46.2877 	 37.967 	 86.591 	 
H 	 -45.2917 	 37.9617 	 87.0307 	 
H 	 -46.6207 	 36.8984 	 86.791 	 
C 	 -47.1068 	 38.9405 	 87.4138 	 
H 	 -46.6717 	 39.9528 	 87.1299 	 
H 	 -48.0823 	 38.9719 	 86.9467 	 
C 	 -46.8942 	 38.6605 	 88.9083 	 
H 	 -47.3065 	 39.3254 	 89.6688 	 
H 	 -47.2168 	 37.6876 	 89.3322 	 
H 	 -45.8256 	 38.6221 	 89.182 	 
S 	 -44.14 	 41.5539 	 82.0455 	 
C 	 -42.4743 	 41.747 	 81.5446 	 
C 	 -41.7312 	 40.6385 	 81.9056 	 
C 	 -42.4651 	 39.5983 	 82.5328 	 
C 	 -43.8181 	 39.9161 	 82.6281 	 
H 	 -40.6494 	 40.5868 	 81.7428 	 
C 	 -41.8411 	 38.2922 	 82.9949 	 
H 	 -42.4273 	 37.8236 	 83.7961 	 
H 	 -40.9057 	 38.6951 	 83.4142 	 
C 	 -41.7822 	 37.3623 	 81.8784 	 
H 	 -42.8218 	 37.1214 	 81.6035 	 
H 	 -41.3604 	 36.4251 	 82.3039 	 
C 	 -40.9112 	 37.838 	 80.6168 	 
H 	 -40.4422 	 37.1182 	 79.9597 	 
H 	 -40.0543 	 38.3458 	 81.1546 	 
H 	 -41.4539 	 38.6183 	 80.0602 	 
H 	 -47.764 	 37.314 	 84.3588 	 
H 	 -42.0608 	 42.6554 	 81.1443 	 
