34

S 	 -96.7163 	 42.9183 	 117.883 	 
C 	 -97.0674 	 44.128 	 119.063 	 
C 	 -96.2034 	 44.1111 	 120.125 	 
C 	 -95.1493 	 43.1634 	 119.941 	 
C 	 -95.2118 	 42.5732 	 118.702 	 
H 	 -94.2639 	 42.9993 	 120.521 	 
C 	 -96.3172 	 44.9247 	 121.429 	 
H 	 -95.5362 	 44.5296 	 122.094 	 
H 	 -97.2891 	 44.7675 	 121.873 	 
C 	 -96.1879 	 46.426 	 121.131 	 
H 	 -95.3277 	 46.4766 	 120.448 	 
H 	 -97.0158 	 46.8666 	 120.6 	 
C 	 -96.0225 	 47.2747 	 122.377 	 
H 	 -95.0698 	 47.3038 	 122.952 	 
H 	 -96.0574 	 48.3104 	 122.121 	 
H 	 -96.9143 	 47.2398 	 123.055 	 
S 	 -93.3576 	 40.6987 	 119.358 	 
C 	 -92.272 	 40.0853 	 118.179 	 
C 	 -92.5909 	 40.5417 	 116.918 	 
C 	 -93.6582 	 41.4375 	 116.876 	 
C 	 -94.1576 	 41.7361 	 118.145 	 
H 	 -91.9491 	 40.1124 	 116.062 	 
C 	 -94.1623 	 42.0222 	 115.631 	 
H 	 -95.1995 	 42.0349 	 115.686 	 
H 	 -93.9149 	 41.4084 	 114.739 	 
C 	 -93.6921 	 43.4498 	 115.324 	 
H 	 -93.7709 	 43.9728 	 116.205 	 
H 	 -94.3581 	 43.9328 	 114.613 	 
C 	 -92.2256 	 43.4921 	 114.979 	 
H 	 -91.8377 	 44.5596 	 114.739 	 
H 	 -91.8592 	 42.8924 	 114.088 	 
H 	 -91.5686 	 43.0237 	 115.771 	 
H 	 -97.8578 	 44.814 	 118.925 	 
H 	 -91.5879 	 39.2679 	 118.39 	 
