34

S 	 -38.0137 	 20.5705 	 75.4173 	 
C 	 -39.6327 	 20.3004 	 74.7901 	 
C 	 -40.4383 	 20.0132 	 75.9208 	 
C 	 -39.6786 	 19.6381 	 77.0695 	 
C 	 -38.3211 	 19.9527 	 77.0033 	 
H 	 -39.9633 	 19.247 	 78.0942 	 
C 	 -41.9195 	 20.0841 	 76.0535 	 
H 	 -42.1833 	 20.4902 	 75.1016 	 
H 	 -42.2068 	 20.8307 	 76.8027 	 
C 	 -42.7026 	 18.7611 	 76.1876 	 
H 	 -43.6889 	 18.9527 	 76.3743 	 
H 	 -42.7525 	 18.352 	 75.2231 	 
C 	 -42.2348 	 17.6485 	 77.0811 	 
H 	 -41.3496 	 17.2196 	 76.6681 	 
H 	 -42.1333 	 18.0015 	 78.1289 	 
H 	 -43.0279 	 16.8813 	 77.0805 	 
S 	 -35.995 	 21.0915 	 77.9332 	 
C 	 -35.0412 	 20.1951 	 79.0908 	 
C 	 -35.7954 	 19.1884 	 79.6477 	 
C 	 -37.0752 	 18.9574 	 79.0366 	 
C 	 -37.3073 	 19.8785 	 78.0249 	 
H 	 -35.4105 	 18.567 	 80.4636 	 
C 	 -38.0477 	 17.9037 	 79.458 	 
H 	 -37.4126 	 17.0108 	 79.7009 	 
H 	 -38.6345 	 17.6779 	 78.6324 	 
C 	 -39.0301 	 18.3321 	 80.6347 	 
H 	 -39.7921 	 19.0909 	 80.4362 	 
H 	 -38.6436 	 18.6999 	 81.5204 	 
C 	 -39.8616 	 17.0961 	 81.06 	 
H 	 -39.3525 	 16.2 	 80.9362 	 
H 	 -40.7278 	 16.8353 	 80.4554 	 
H 	 -40.1456 	 17.1144 	 82.103 	 
H 	 -40.0012 	 20.5709 	 73.8441 	 
H 	 -34.0418 	 20.3828 	 79.4135 	 
