34

S 	 -21.5835 	 34.8096 	 36.4865 	 
C 	 -22.4066 	 33.4963 	 35.6616 	 
C 	 -21.7559 	 32.271 	 35.9097 	 
C 	 -20.6127 	 32.4911 	 36.8038 	 
C 	 -20.4227 	 33.7655 	 37.2344 	 
H 	 -19.8316 	 31.7347 	 37.1167 	 
C 	 -22.1137 	 30.932 	 35.2947 	 
H 	 -21.919 	 31.139 	 34.2259 	 
H 	 -23.1879 	 30.6952 	 35.3431 	 
C 	 -21.4002 	 29.675 	 35.7389 	 
H 	 -21.5381 	 28.8063 	 35.0436 	 
H 	 -20.3766 	 29.8791 	 35.5495 	 
C 	 -21.5573 	 29.3186 	 37.2185 	 
H 	 -20.943 	 28.4281 	 37.4796 	 
H 	 -21.4031 	 30.1551 	 37.8272 	 
H 	 -22.5165 	 28.9933 	 37.4911 	 
S 	 -19.1534 	 33.7051 	 39.7234 	 
C 	 -17.6355 	 34.5543 	 39.9718 	 
C 	 -17.4334 	 35.4 	 38.8937 	 
C 	 -18.3838 	 35.3029 	 37.7698 	 
C 	 -19.322 	 34.3545 	 38.0564 	 
H 	 -16.5381 	 35.9824 	 38.8399 	 
C 	 -18.1738 	 36.0726 	 36.4873 	 
H 	 -17.6954 	 37.1134 	 36.5405 	 
H 	 -19.1711 	 36.2079 	 36.1781 	 
C 	 -17.3629 	 35.515 	 35.3105 	 
H 	 -17.3586 	 36.299 	 34.5784 	 
H 	 -17.8984 	 34.6739 	 34.901 	 
C 	 -15.9396 	 35.2099 	 35.7032 	 
H 	 -15.5106 	 34.6994 	 34.8439 	 
H 	 -15.8081 	 34.4773 	 36.548 	 
H 	 -15.3888 	 36.0967 	 35.9808 	 
H 	 -23.259 	 33.5713 	 34.9193 	 
H 	 -16.8802 	 34.4272 	 40.8112 	 
