34

S 	 38.2288 	 11.0334 	 89.8485 	 
C 	 39.5632 	 10.3185 	 89.0269 	 
C 	 39.162 	 9.31244 	 88.2139 	 
C 	 37.7607 	 9.02658 	 88.2824 	 
C 	 37.0799 	 9.94193 	 89.0275 	 
H 	 37.2951 	 8.14317 	 87.8184 	 
C 	 40.1308 	 8.40785 	 87.4913 	 
H 	 39.5567 	 7.46503 	 87.3655 	 
H 	 40.9349 	 8.24031 	 88.1922 	 
C 	 40.6707 	 8.90342 	 86.1455 	 
H 	 41.0874 	 9.81704 	 86.2328 	 
H 	 41.3886 	 8.21201 	 85.8413 	 
C 	 39.5257 	 8.92895 	 85.1191 	 
H 	 38.7001 	 9.55958 	 85.4854 	 
H 	 39.8273 	 9.40635 	 84.2069 	 
H 	 39.2095 	 7.92104 	 84.9554 	 
S 	 35.1009 	 9.37176 	 90.7479 	 
C 	 33.4139 	 9.4939 	 90.1497 	 
C 	 33.3372 	 10.023 	 88.9066 	 
C 	 34.6445 	 10.0839 	 88.325 	 
C 	 35.6755 	 9.945 	 89.2209 	 
H 	 32.3984 	 10.328 	 88.3514 	 
C 	 34.8798 	 10.373 	 86.8085 	 
H 	 34.4871 	 9.47236 	 86.3232 	 
H 	 35.9608 	 10.3484 	 86.5901 	 
C 	 34.2565 	 11.6305 	 86.2286 	 
H 	 33.2138 	 11.6462 	 86.382 	 
H 	 34.2352 	 11.6441 	 85.1474 	 
C 	 34.9369 	 12.9934 	 86.7823 	 
H 	 34.6941 	 13.9254 	 86.1077 	 
H 	 36.0697 	 13.0316 	 86.6657 	 
H 	 34.7333 	 13.2033 	 87.7918 	 
H 	 40.5794 	 10.6497 	 89.3083 	 
H 	 32.5158 	 9.26993 	 90.7231 	 
