34

S 	 6.38812 	 -15.6089 	 66.7838 	 
C 	 6.61822 	 -17.3187 	 66.4671 	 
C 	 7.84978 	 -17.7455 	 66.8278 	 
C 	 8.73615 	 -16.6277 	 67.263 	 
C 	 8.01344 	 -15.4506 	 67.4845 	 
H 	 9.73349 	 -16.7174 	 67.5624 	 
C 	 8.30368 	 -19.1926 	 66.7106 	 
H 	 7.37888 	 -19.7878 	 66.437 	 
H 	 8.67358 	 -19.6041 	 67.6799 	 
C 	 9.31513 	 -19.3976 	 65.596 	 
H 	 10.2356 	 -18.8526 	 65.9071 	 
H 	 9.51018 	 -20.5087 	 65.5403 	 
C 	 8.84129 	 -18.9485 	 64.2557 	 
H 	 9.07807 	 -19.7518 	 63.5849 	 
H 	 7.79321 	 -18.6967 	 64.2318 	 
H 	 9.39815 	 -18.0332 	 63.8689 	 
S 	 7.41432 	 -13.5787 	 69.3865 	 
C 	 8.75384 	 -12.6598 	 70.0137 	 
C 	 9.88516 	 -12.6943 	 69.2385 	 
C 	 9.75491 	 -13.6281 	 68.1663 	 
C 	 8.52273 	 -14.2997 	 68.2092 	 
H 	 10.8067 	 -12.1479 	 69.4491 	 
C 	 10.9044 	 -13.7888 	 67.2261 	 
H 	 11.3185 	 -14.8314 	 67.1417 	 
H 	 11.7925 	 -13.3223 	 67.6262 	 
C 	 10.6554 	 -13.1352 	 65.794 	 
H 	 11.6377 	 -13.0129 	 65.2677 	 
H 	 10.35 	 -12.034 	 65.864 	 
C 	 9.85633 	 -14.0118 	 64.7455 	 
H 	 8.8149 	 -14.0858 	 64.9137 	 
H 	 10.3757 	 -14.9795 	 64.6312 	 
H 	 9.83484 	 -13.5127 	 63.7903 	 
H 	 5.79234 	 -18.0052 	 66.2237 	 
H 	 8.61292 	 -12.0967 	 70.8912 	 
