34

S 	 -0.967327 	 -28.9857 	 83.7963 	 
C 	 -0.326907 	 -30.0561 	 82.5942 	 
C 	 0.909835 	 -29.6497 	 82.1167 	 
C 	 1.26536 	 -28.3706 	 82.6964 	 
C 	 0.355737 	 -27.8753 	 83.6419 	 
H 	 2.19014 	 -27.7807 	 82.6586 	 
C 	 1.7605 	 -30.3972 	 81.0566 	 
H 	 2.72939 	 -30.7586 	 81.4971 	 
H 	 2.01034 	 -29.6787 	 80.227 	 
C 	 1.08837 	 -31.6264 	 80.4408 	 
H 	 0.96024 	 -32.345 	 81.1673 	 
H 	 0.168176 	 -31.3291 	 80.0241 	 
C 	 1.91489 	 -32.1764 	 79.2777 	 
H 	 2.73439 	 -32.8889 	 79.6533 	 
H 	 1.351 	 -32.8714 	 78.635 	 
H 	 2.42119 	 -31.4272 	 78.743 	 
S 	 1.85151 	 -26.2926 	 85.3667 	 
C 	 1.02901 	 -24.8462 	 85.928 	 
C 	 -0.235655 	 -24.6359 	 85.4269 	 
C 	 -0.561698 	 -25.5825 	 84.456 	 
C 	 0.410039 	 -26.5943 	 84.3465 	 
H 	 -0.763257 	 -23.7235 	 85.6798 	 
C 	 -1.8665 	 -25.5606 	 83.8011 	 
H 	 -2.48537 	 -24.9447 	 84.431 	 
H 	 -2.28949 	 -26.5783 	 83.7257 	 
C 	 -1.80998 	 -25.0607 	 82.376 	 
H 	 -2.83036 	 -24.9944 	 81.9693 	 
H 	 -1.25499 	 -25.9235 	 82.0455 	 
C 	 -1.02807 	 -23.8174 	 82.0493 	 
H 	 0.0138124 	 -23.97 	 82.1922 	 
H 	 -1.25963 	 -22.9494 	 82.6213 	 
H 	 -1.10297 	 -23.6151 	 80.9386 	 
H 	 -0.805507 	 -30.8795 	 82.1246 	 
H 	 1.40074 	 -24.2199 	 86.7279 	 
