34

S 	 -7.86439 	 76.9489 	 47.9525 	 
C 	 -9.06027 	 78.1686 	 48.1217 	 
C 	 -10.3816 	 77.6858 	 47.953 	 
C 	 -10.3706 	 76.3232 	 47.5219 	 
C 	 -9.07606 	 75.7726 	 47.3958 	 
H 	 -11.2423 	 75.686 	 47.3724 	 
C 	 -11.6862 	 78.3968 	 48.2604 	 
H 	 -11.6002 	 78.9892 	 49.1879 	 
H 	 -12.4596 	 77.5934 	 48.4449 	 
C 	 -12.2546 	 79.157 	 47.071 	 
H 	 -11.6571 	 79.9159 	 46.5481 	 
H 	 -12.346 	 78.2923 	 46.3169 	 
C 	 -13.6332 	 79.6957 	 47.3116 	 
H 	 -14.0984 	 79.9519 	 46.308 	 
H 	 -14.3759 	 78.8896 	 47.5897 	 
H 	 -13.6648 	 80.4332 	 48.1054 	 
S 	 -8.65831 	 73.2927 	 48.3929 	 
C 	 -8.87422 	 71.9164 	 47.3432 	 
C 	 -9.24601 	 72.2117 	 46.0701 	 
C 	 -9.29511 	 73.6247 	 45.8883 	 
C 	 -8.87487 	 74.3591 	 47.0484 	 
H 	 -9.47462 	 71.3372 	 45.4292 	 
C 	 -9.83959 	 74.2776 	 44.6489 	 
H 	 -9.39105 	 73.8417 	 43.782 	 
H 	 -9.36591 	 75.3027 	 44.7155 	 
C 	 -11.3725 	 74.3331 	 44.5418 	 
H 	 -11.7161 	 74.3381 	 45.5629 	 
H 	 -11.7212 	 73.39 	 44.0796 	 
C 	 -11.9708 	 75.5655 	 43.8385 	 
H 	 -11.9481 	 76.4646 	 44.4409 	 
H 	 -12.937 	 75.2383 	 43.5327 	 
H 	 -11.4165 	 75.8488 	 42.8251 	 
H 	 -8.69479 	 79.1849 	 48.3392 	 
H 	 -9.12592 	 70.9047 	 47.7059 	 
