34

S 	 20.8002 	 4.87889 	 74.1796 	 
C 	 21.3234 	 4.68603 	 72.4848 	 
C 	 21.1535 	 5.82097 	 71.7774 	 
C 	 20.3073 	 6.78635 	 72.4917 	 
C 	 20.041 	 6.42748 	 73.7795 	 
H 	 20.1045 	 7.77611 	 72.2117 	 
C 	 21.7096 	 6.10678 	 70.4507 	 
H 	 21.0736 	 5.63137 	 69.84 	 
H 	 22.6899 	 5.65087 	 70.3331 	 
C 	 21.9165 	 7.62862 	 70.0038 	 
H 	 22.3069 	 7.63512 	 68.9773 	 
H 	 20.9401 	 7.98851 	 69.9208 	 
C 	 22.8495 	 8.55472 	 70.7874 	 
H 	 23.4252 	 9.30052 	 70.1049 	 
H 	 22.234 	 9.22388 	 71.429 	 
H 	 23.5953 	 8.00405 	 71.4399 	 
S 	 17.6441 	 7.57082 	 74.4389 	 
C 	 17.5832 	 8.53724 	 75.9469 	 
C 	 18.8529 	 8.80314 	 76.5113 	 
C 	 19.8584 	 8.04763 	 75.7649 	 
C 	 19.3641 	 7.27734 	 74.732 	 
H 	 19.0541 	 9.29081 	 77.452 	 
C 	 21.2284 	 7.82308 	 76.405 	 
H 	 21.4093 	 6.69556 	 76.3867 	 
H 	 21.1056 	 7.99937 	 77.5058 	 
C 	 22.4766 	 8.61801 	 75.8869 	 
H 	 22.7645 	 8.16921 	 74.9353 	 
H 	 23.3173 	 8.27893 	 76.4903 	 
C 	 22.2624 	 10.1065 	 75.9391 	 
H 	 21.6119 	 10.6362 	 75.1776 	 
H 	 23.165 	 10.6171 	 75.6873 	 
H 	 21.9009 	 10.5898 	 76.8785 	 
H 	 21.9951 	 3.96509 	 72.0769 	 
H 	 16.7106 	 9.03351 	 76.3948 	 
