34

S 	 -1.71962 	 -13.1268 	 67.8313 	 
C 	 -0.221942 	 -13.4888 	 66.9557 	 
C 	 0.809929 	 -13.88 	 67.7967 	 
C 	 0.416781 	 -13.9035 	 69.1292 	 
C 	 -0.904406 	 -13.4885 	 69.394 	 
H 	 1.15263 	 -14.0806 	 69.9191 	 
C 	 2.11777 	 -14.3037 	 67.2707 	 
H 	 2.05923 	 -14.4572 	 66.1363 	 
H 	 2.4519 	 -15.1957 	 67.7675 	 
C 	 3.27782 	 -13.2551 	 67.5347 	 
H 	 2.96594 	 -12.2866 	 67.2389 	 
H 	 3.39543 	 -13.2137 	 68.6887 	 
C 	 4.67597 	 -13.6864 	 67.0483 	 
H 	 4.85795 	 -14.5794 	 67.5846 	 
H 	 4.73941 	 -13.8686 	 66.0076 	 
H 	 5.40078 	 -12.928 	 67.2969 	 
S 	 -1.67469 	 -11.3882 	 71.0207 	 
C 	 -1.88437 	 -11.6114 	 72.6942 	 
C 	 -1.6678 	 -12.9302 	 73.0407 	 
C 	 -1.19433 	 -13.7016 	 71.9488 	 
C 	 -1.29237 	 -13.0453 	 70.7436 	 
H 	 -1.88191 	 -13.2114 	 74.0873 	 
C 	 -0.65564 	 -15.1208 	 72.0918 	 
H 	 -0.72944 	 -15.598 	 71.1524 	 
H 	 -1.42396 	 -15.732 	 72.634 	 
C 	 0.673668 	 -15.2742 	 72.7457 	 
H 	 0.562293 	 -15.0202 	 73.8088 	 
H 	 1.25906 	 -14.4297 	 72.353 	 
C 	 1.31853 	 -16.6825 	 72.5048 	 
H 	 1.34061 	 -16.8776 	 71.3918 	 
H 	 0.81737 	 -17.5078 	 72.9299 	 
H 	 2.31327 	 -16.7275 	 72.8369 	 
H 	 -0.203282 	 -13.5097 	 65.8457 	 
H 	 -2.31989 	 -10.9336 	 73.3879 	 
