34

S 	 -41.1287 	 51.4459 	 103.022 	 
C 	 -40.1761 	 50.0964 	 103.459 	 
C 	 -40.8648 	 48.9662 	 103.97 	 
C 	 -42.2566 	 49.2338 	 103.934 	 
C 	 -42.5748 	 50.5442 	 103.528 	 
H 	 -43.0197 	 48.5364 	 104.16 	 
C 	 -40.2447 	 47.5904 	 104.164 	 
H 	 -39.1818 	 47.7019 	 103.926 	 
H 	 -40.6384 	 46.8731 	 103.428 	 
C 	 -40.4815 	 46.859 	 105.547 	 
H 	 -41.5593 	 46.6957 	 105.595 	 
H 	 -40.0918 	 45.842 	 105.523 	 
C 	 -39.8603 	 47.7501 	 106.675 	 
H 	 -40.3287 	 47.658 	 107.637 	 
H 	 -38.7928 	 47.6096 	 106.79 	 
H 	 -39.9774 	 48.7839 	 106.373 	 
S 	 -43.9634 	 52.8584 	 103.403 	 
C 	 -45.7159 	 52.8529 	 103.21 	 
C 	 -46.1957 	 51.5565 	 103.213 	 
C 	 -45.1957 	 50.5753 	 103.214 	 
C 	 -43.8926 	 51.0969 	 103.28 	 
H 	 -47.2803 	 51.4885 	 102.992 	 
C 	 -45.4373 	 49.0223 	 103.015 	 
H 	 -45.5044 	 48.6684 	 104.027 	 
H 	 -44.5891 	 48.6305 	 102.462 	 
C 	 -46.67 	 48.6828 	 102.241 	 
H 	 -47.5257 	 49.2387 	 102.594 	 
H 	 -46.8658 	 47.5939 	 102.3 	 
C 	 -46.5917 	 48.9939 	 100.689 	 
H 	 -46.2742 	 50.0378 	 100.635 	 
H 	 -47.5559 	 48.8898 	 100.247 	 
H 	 -45.7356 	 48.3889 	 100.295 	 
H 	 -39.1272 	 50.0828 	 103.354 	 
H 	 -46.4439 	 53.6698 	 103.351 	 
