34

S 	 -15.2834 	 38.7085 	 38.8128 	 
C 	 -14.0363 	 39.9295 	 38.7009 	 
C 	 -12.8278 	 39.3732 	 38.3447 	 
C 	 -12.8714 	 37.9677 	 38.2493 	 
C 	 -14.116 	 37.4516 	 38.3797 	 
H 	 -12.037 	 37.3563 	 38.0825 	 
C 	 -11.5242 	 40.1443 	 38.1011 	 
H 	 -11.6746 	 40.9858 	 37.4194 	 
H 	 -10.933 	 39.4512 	 37.5116 	 
C 	 -10.8488 	 40.6999 	 39.3708 	 
H 	 -11.4031 	 41.5252 	 39.8391 	 
H 	 -10.7322 	 39.9072 	 40.1502 	 
C 	 -9.29042 	 41.0301 	 39.2249 	 
H 	 -8.6722 	 40.1997 	 38.8002 	 
H 	 -9.0144 	 41.8522 	 38.64 	 
H 	 -8.9158 	 41.2293 	 40.2141 	 
S 	 -14.4796 	 34.93 	 39.5204 	 
C 	 -14.5102 	 33.5787 	 38.4778 	 
C 	 -14.5352 	 33.9462 	 37.1514 	 
C 	 -14.3318 	 35.3475 	 36.8961 	 
C 	 -14.363 	 36.0369 	 38.1226 	 
H 	 -14.5502 	 33.1631 	 36.3939 	 
C 	 -14.231 	 35.8619 	 35.4862 	 
H 	 -13.3144 	 35.4677 	 34.9865 	 
H 	 -14.0187 	 36.9182 	 35.7219 	 
C 	 -15.5977 	 35.7856 	 34.7345 	 
H 	 -16.0309 	 36.7779 	 34.5655 	 
H 	 -16.3311 	 35.3046 	 35.293 	 
C 	 -15.3646 	 34.991 	 33.4845 	 
H 	 -14.8679 	 34.0975 	 33.8095 	 
H 	 -14.9313 	 35.4702 	 32.5715 	 
H 	 -16.31 	 34.6245 	 33.1236 	 
H 	 -14.0977 	 41.0151 	 38.7856 	 
H 	 -14.7212 	 32.5562 	 38.8746 	 
