34

S 	 2.37427 	 -5.49542 	 85.8994 	 
C 	 1.86662 	 -4.72657 	 87.3731 	 
C 	 2.58089 	 -5.11825 	 88.4854 	 
C 	 3.51672 	 -6.13354 	 88.0886 	 
C 	 3.67253 	 -6.39966 	 86.7586 	 
H 	 4.17187 	 -6.56491 	 88.8477 	 
C 	 2.12116 	 -4.78575 	 89.879 	 
H 	 2.0264 	 -3.67728 	 89.8144 	 
H 	 2.90775 	 -5.02439 	 90.4662 	 
C 	 0.782048 	 -5.52996 	 90.3551 	 
H 	 -0.108529 	 -4.97489 	 89.9039 	 
H 	 0.645539 	 -6.53603 	 89.9822 	 
C 	 0.671392 	 -5.54693 	 91.8838 	 
H 	 0.429254 	 -4.5413 	 92.3411 	 
H 	 -0.154204 	 -6.11798 	 92.1921 	 
H 	 1.43035 	 -6.08536 	 92.3664 	 
S 	 4.03489 	 -8.13684 	 84.627 	 
C 	 5.44087 	 -9.10385 	 84.5417 	 
C 	 6.15013 	 -9.0654 	 85.7142 	 
C 	 5.7056 	 -8.12169 	 86.6749 	 
C 	 4.51731 	 -7.47403 	 86.2147 	 
H 	 7.05996 	 -9.74345 	 85.7504 	 
C 	 6.45979 	 -7.80195 	 87.9647 	 
H 	 6.34767 	 -6.71637 	 88.198 	 
H 	 7.53348 	 -7.91916 	 87.7755 	 
C 	 6.06298 	 -8.62706 	 89.1038 	 
H 	 4.99301 	 -8.47921 	 89.3072 	 
H 	 6.62991 	 -8.1826 	 89.944 	 
C 	 6.29986 	 -10.1041 	 88.8787 	 
H 	 7.14008 	 -10.373 	 88.1902 	 
H 	 5.37167 	 -10.6666 	 88.6357 	 
H 	 6.61703 	 -10.6626 	 89.8117 	 
H 	 0.973913 	 -4.07495 	 87.4712 	 
H 	 5.63038 	 -9.89815 	 83.8531 	 
