34

S 	 39.8866 	 10.8995 	 77.0392 	 
C 	 40.9963 	 10.6182 	 75.6785 	 
C 	 42.3193 	 10.8338 	 76.0912 	 
C 	 42.4406 	 11.2711 	 77.4096 	 
C 	 41.2401 	 11.4258 	 78.0821 	 
H 	 43.3522 	 11.4768 	 77.9951 	 
C 	 43.5517 	 10.3992 	 75.2769 	 
H 	 43.2113 	 9.63115 	 74.5987 	 
H 	 44.268 	 9.89073 	 75.843 	 
C 	 44.1889 	 11.5211 	 74.419 	 
H 	 44.7288 	 12.1012 	 75.0983 	 
H 	 44.8986 	 11.0651 	 73.7181 	 
C 	 43.2754 	 12.5417 	 73.7933 	 
H 	 42.8324 	 13.1411 	 74.627 	 
H 	 43.7811 	 13.3365 	 73.2098 	 
H 	 42.5341 	 11.9324 	 73.2685 	 
S 	 41.7159 	 13.3964 	 79.7503 	 
C 	 40.8817 	 13.6534 	 81.2405 	 
C 	 40.0634 	 12.5872 	 81.4733 	 
C 	 40.041 	 11.5868 	 80.4421 	 
C 	 40.9474 	 11.9306 	 79.4072 	 
H 	 39.3376 	 12.4592 	 82.2326 	 
C 	 39.1386 	 10.3601 	 80.4152 	 
H 	 38.5745 	 10.2597 	 79.4235 	 
H 	 38.3051 	 10.5623 	 81.1002 	 
C 	 39.7663 	 8.9797 	 80.7181 	 
H 	 40.5373 	 8.61164 	 80.0444 	 
H 	 38.8754 	 8.4762 	 80.5384 	 
C 	 40.1668 	 8.59602 	 82.1892 	 
H 	 40.957 	 9.18203 	 82.4714 	 
H 	 40.4532 	 7.6044 	 82.2431 	 
H 	 39.3992 	 8.79526 	 82.8571 	 
H 	 40.7861 	 10.1016 	 74.739 	 
H 	 40.9964 	 14.5265 	 81.8518 	 
