34

S 	 -36.6059 	 40.7981 	 95.2091 	 
C 	 -37.3592 	 42.3674 	 95.3132 	 
C 	 -38.6791 	 42.3798 	 94.9397 	 
C 	 -39.1201 	 41.068 	 94.71 	 
C 	 -38.1379 	 40.1334 	 94.7359 	 
H 	 -40.1673 	 40.8532 	 94.5628 	 
C 	 -39.6338 	 43.5493 	 94.9804 	 
H 	 -39.6444 	 43.9906 	 94.0049 	 
H 	 -39.1082 	 44.2557 	 95.5475 	 
C 	 -41.0525 	 43.4359 	 95.5234 	 
H 	 -41.5891 	 42.7173 	 94.9064 	 
H 	 -40.9297 	 42.9138 	 96.4056 	 
C 	 -41.9232 	 44.7126 	 95.4175 	 
H 	 -43.0094 	 44.5231 	 95.6445 	 
H 	 -41.5142 	 45.4885 	 96.0163 	 
H 	 -41.8765 	 45.1701 	 94.3988 	 
S 	 -37.0957 	 37.6755 	 95.2913 	 
C 	 -37.6164 	 36.3405 	 94.4057 	 
C 	 -38.6423 	 36.5677 	 93.6007 	 
C 	 -39.0242 	 37.9003 	 93.65 	 
C 	 -38.1776 	 38.698 	 94.4417 	 
H 	 -39.0208 	 35.8281 	 92.9253 	 
C 	 -40.2655 	 38.2893 	 92.8462 	 
H 	 -40.1713 	 37.839 	 91.8784 	 
H 	 -40.3838 	 39.3605 	 92.7528 	 
C 	 -41.6757 	 37.7552 	 93.2859 	 
H 	 -41.7783 	 38.1537 	 94.2799 	 
H 	 -41.6225 	 36.6811 	 93.4111 	 
C 	 -42.7766 	 38.1571 	 92.3178 	 
H 	 -42.9601 	 39.2065 	 92.3811 	 
H 	 -43.6866 	 37.6382 	 92.5213 	 
H 	 -42.4357 	 37.7934 	 91.3179 	 
H 	 -36.9541 	 43.1832 	 95.9386 	 
H 	 -37.0551 	 35.4282 	 94.3362 	 
