34

S 	 -93.9074 	 59.5831 	 125.763 	 
C 	 -92.2817 	 58.8939 	 125.989 	 
C 	 -92.051 	 58.3727 	 127.244 	 
C 	 -93.2792 	 58.5219 	 127.992 	 
C 	 -94.3263 	 59.1988 	 127.393 	 
H 	 -93.3045 	 58.158 	 128.976 	 
C 	 -90.7319 	 57.8256 	 127.825 	 
H 	 -90.6452 	 58.0746 	 128.905 	 
H 	 -89.9667 	 58.373 	 127.323 	 
C 	 -90.5686 	 56.2613 	 127.639 	 
H 	 -91.3625 	 55.8319 	 128.212 	 
H 	 -90.5858 	 55.8801 	 126.627 	 
C 	 -89.1559 	 55.767 	 128.131 	 
H 	 -88.9658 	 54.6822 	 127.803 	 
H 	 -88.3908 	 56.4434 	 127.776 	 
H 	 -89.0509 	 55.9396 	 129.263 	 
S 	 -97.1721 	 59.3492 	 127.258 	 
C 	 -98.0832 	 59.9905 	 128.607 	 
C 	 -97.2685 	 60.223 	 129.692 	 
C 	 -95.8975 	 59.8943 	 129.4 	 
C 	 -95.6338 	 59.4808 	 128.073 	 
H 	 -97.7076 	 60.7089 	 130.521 	 
C 	 -94.845 	 60.0454 	 130.463 	 
H 	 -94.0049 	 60.4808 	 130.012 	 
H 	 -94.486 	 59.0345 	 130.849 	 
C 	 -95.1898 	 61.0285 	 131.532 	 
H 	 -96.081 	 60.5378 	 132.018 	 
H 	 -95.5441 	 61.9961 	 131.148 	 
C 	 -93.9975 	 61.4527 	 132.38 	 
H 	 -94.3469 	 62.3265 	 132.854 	 
H 	 -93.1807 	 61.7381 	 131.738 	 
H 	 -93.6684 	 60.6553 	 133.059 	 
H 	 -91.4594 	 59.0544 	 125.276 	 
H 	 -99.0467 	 60.4932 	 128.521 	 
