34

S 	 38.4558 	 15.4006 	 79.55 	 
C 	 37.3102 	 15.0174 	 78.2238 	 
C 	 36.023 	 15.374 	 78.5699 	 
C 	 35.9691 	 15.7576 	 79.9311 	 
C 	 37.0985 	 15.6313 	 80.6411 	 
H 	 35.0872 	 16.0094 	 80.4654 	 
C 	 34.7422 	 15.3283 	 77.6999 	 
H 	 35.1824 	 15.1401 	 76.7153 	 
H 	 34.3807 	 16.4007 	 77.8421 	 
C 	 33.8584 	 14.2151 	 78.0168 	 
H 	 34.5049 	 13.3832 	 78.3895 	 
H 	 33.2765 	 14.3338 	 78.865 	 
C 	 32.9027 	 13.8646 	 76.9344 	 
H 	 33.4243 	 13.767 	 75.9544 	 
H 	 32.5772 	 12.8011 	 77.0912 	 
H 	 32.0756 	 14.5884 	 76.8359 	 
S 	 38.9568 	 16.1245 	 82.7411 	 
C 	 38.2799 	 16.3035 	 84.3799 	 
C 	 36.9477 	 16.0443 	 84.4354 	 
C 	 36.3561 	 15.7002 	 83.1907 	 
C 	 37.2468 	 15.7959 	 82.1283 	 
H 	 36.3972 	 16.0143 	 85.3431 	 
C 	 34.8692 	 15.5543 	 83.1182 	 
H 	 34.503 	 15.2156 	 84.1111 	 
H 	 34.6228 	 14.7344 	 82.4439 	 
C 	 33.9409 	 16.7298 	 82.8383 	 
H 	 34.1912 	 17.2485 	 81.9449 	 
H 	 34.2289 	 17.4643 	 83.5916 	 
C 	 32.453 	 16.3048 	 82.9284 	 
H 	 32.0507 	 16.0133 	 83.938 	 
H 	 32.3568 	 15.4032 	 82.2706 	 
H 	 31.8324 	 17.0754 	 82.5001 	 
H 	 37.5269 	 14.6286 	 77.179 	 
H 	 38.7714 	 16.6418 	 85.2818 	 
