34

S 	 -86.5889 	 49.4939 	 130.949 	 
C 	 -88.2098 	 50.0204 	 131.399 	 
C 	 -88.6342 	 51.1903 	 130.779 	 
C 	 -87.5988 	 51.6833 	 129.958 	 
C 	 -86.4431 	 50.8857 	 129.875 	 
H 	 -87.6491 	 52.5744 	 129.467 	 
C 	 -90.0231 	 51.7612 	 130.982 	 
H 	 -90.7547 	 50.9133 	 131.285 	 
H 	 -90.5338 	 52.0937 	 130.064 	 
C 	 -90.164 	 52.8717 	 132.073 	 
H 	 -91.2812 	 52.9709 	 132.232 	 
H 	 -89.867 	 52.6119 	 133.098 	 
C 	 -89.5805 	 54.2169 	 131.601 	 
H 	 -89.8051 	 55.0829 	 132.221 	 
H 	 -88.4843 	 54.1287 	 131.458 	 
H 	 -90.0178 	 54.5454 	 130.651 	 
S 	 -84.2381 	 49.9897 	 128.571 	 
C 	 -82.8193 	 50.9713 	 128.553 	 
C 	 -83.0294 	 52.2342 	 129.063 	 
C 	 -84.3616 	 52.4264 	 129.549 	 
C 	 -85.1619 	 51.2737 	 129.351 	 
H 	 -82.2479 	 52.9154 	 129.063 	 
C 	 -84.9165 	 53.6888 	 130.293 	 
H 	 -86.0024 	 53.6774 	 130.453 	 
H 	 -84.7785 	 54.4606 	 129.585 	 
C 	 -84.1525 	 53.8922 	 131.588 	 
H 	 -83.8166 	 54.8794 	 131.609 	 
H 	 -83.2784 	 53.2809 	 131.641 	 
C 	 -85.0492 	 53.5019 	 132.826 	 
H 	 -84.4828 	 53.5128 	 133.761 	 
H 	 -85.3855 	 52.5065 	 132.747 	 
H 	 -85.8088 	 54.2396 	 132.851 	 
H 	 -88.9166 	 49.4346 	 131.892 	 
H 	 -81.9231 	 50.5804 	 128.071 	 
