34

S 	 5.52835 	 -11.4134 	 60.688 	 
C 	 5.18336 	 -10.0892 	 61.8566 	 
C 	 5.22469 	 -10.5089 	 63.1632 	 
C 	 5.39223 	 -11.9271 	 63.2492 	 
C 	 5.61202 	 -12.5636 	 62.0281 	 
H 	 5.43968 	 -12.533 	 64.1416 	 
C 	 5.07746 	 -9.6842 	 64.458 	 
H 	 4.4862 	 -10.3483 	 65.0332 	 
H 	 4.5097 	 -8.79457 	 64.3338 	 
C 	 6.32796 	 -9.29984 	 65.1971 	 
H 	 6.80931 	 -8.53327 	 64.5401 	 
H 	 6.03026 	 -8.82937 	 66.1405 	 
C 	 7.35007 	 -10.4583 	 65.4856 	 
H 	 7.87313 	 -10.7927 	 64.589 	 
H 	 8.12676 	 -10.0415 	 66.1131 	 
H 	 6.85487 	 -11.4561 	 65.9254 	 
S 	 7.37047 	 -14.5146 	 61.3636 	 
C 	 6.96399 	 -16.2296 	 61.6372 	 
C 	 5.63478 	 -16.2952 	 61.9349 	 
C 	 4.99172 	 -15.014 	 62.156 	 
C 	 5.79269 	 -13.9738 	 61.8017 	 
H 	 5.2077 	 -17.2446 	 62.0275 	 
C 	 3.58506 	 -14.9779 	 62.6324 	 
H 	 3.50392 	 -14.0219 	 63.0788 	 
H 	 3.51063 	 -15.661 	 63.4502 	 
C 	 2.43822 	 -15.3064 	 61.5987 	 
H 	 2.61574 	 -16.2589 	 61.0669 	 
H 	 2.42819 	 -14.5503 	 60.7933 	 
C 	 1.03552 	 -15.3373 	 62.2517 	 
H 	 0.79654 	 -14.412 	 62.8537 	 
H 	 0.916155 	 -16.1496 	 62.9958 	 
H 	 0.259441 	 -15.3997 	 61.5068 	 
H 	 4.96882 	 -9.0789 	 61.5262 	 
H 	 7.71082 	 -17.0426 	 61.5027 	 
