34

S 	 -19.2201 	 -3.12184 	 91.8647 	 
C 	 -20.7907 	 -2.63327 	 92.5335 	 
C 	 -21.5991 	 -2.17042 	 91.579 	 
C 	 -21.0526 	 -2.36966 	 90.3186 	 
C 	 -19.7026 	 -2.76322 	 90.2171 	 
H 	 -21.5549 	 -2.16432 	 89.4337 	 
C 	 -22.9064 	 -1.59624 	 91.8074 	 
H 	 -23.3408 	 -1.23754 	 90.861 	 
H 	 -22.7435 	 -0.6573 	 92.394 	 
C 	 -23.8618 	 -2.4625 	 92.5655 	 
H 	 -23.3475 	 -2.79121 	 93.481 	 
H 	 -24.7464 	 -1.87768 	 92.8557 	 
C 	 -24.2579 	 -3.63302 	 91.657 	 
H 	 -23.4216 	 -4.03272 	 91.0835 	 
H 	 -24.6585 	 -4.43247 	 92.2235 	 
H 	 -25.0782 	 -3.46023 	 90.9984 	 
S 	 -17.242 	 -2.17263 	 89.1162 	 
C 	 -16.9581 	 -2.39532 	 87.4207 	 
C 	 -18.0077 	 -3.09296 	 86.8318 	 
C 	 -19.1163 	 -3.3137 	 87.7339 	 
C 	 -18.8698 	 -2.83177 	 89.0335 	 
H 	 -18.0505 	 -3.1778 	 85.75 	 
C 	 -20.4332 	 -3.98959 	 87.44 	 
H 	 -20.8293 	 -4.39726 	 88.3542 	 
H 	 -20.2276 	 -4.89571 	 86.8368 	 
C 	 -21.5179 	 -3.10616 	 86.8379 	 
H 	 -21.2671 	 -2.79732 	 85.8086 	 
H 	 -21.6049 	 -2.096 	 87.3686 	 
C 	 -22.8616 	 -3.79749 	 86.8497 	 
H 	 -23.0702 	 -4.1013 	 87.8966 	 
H 	 -22.7548 	 -4.69136 	 86.2135 	 
H 	 -23.7036 	 -3.22415 	 86.3669 	 
H 	 -20.9089 	 -2.51585 	 93.5893 	 
H 	 -16.0803 	 -1.98894 	 86.868 	 
