34

S 	 -28.8097 	 57.519 	 117.973 	 
C 	 -30.4902 	 56.7831 	 117.79 	 
C 	 -31.4847 	 57.7041 	 117.986 	 
C 	 -30.8892 	 58.9119 	 118.464 	 
C 	 -29.5051 	 59.0214 	 118.43 	 
H 	 -31.4983 	 59.7631 	 118.63 	 
C 	 -32.9221 	 57.3029 	 117.99 	 
H 	 -33.4032 	 57.7343 	 118.838 	 
H 	 -33.0266 	 56.2203 	 118.257 	 
C 	 -33.7215 	 57.4975 	 116.776 	 
H 	 -34.7985 	 57.3203 	 116.809 	 
H 	 -33.7242 	 58.5872 	 116.693 	 
C 	 -33.1985 	 56.9161 	 115.452 	 
H 	 -33.8008 	 57.4027 	 114.698 	 
H 	 -32.1831 	 57.1882 	 115.268 	 
H 	 -33.3428 	 55.7859 	 115.395 	 
S 	 -27.4981 	 60.5776 	 117.314 	 
C 	 -27.3256 	 62.188 	 117.946 	 
C 	 -28.0515 	 62.3315 	 119.114 	 
C 	 -28.8336 	 61.2053 	 119.431 	 
C 	 -28.7114 	 60.2089 	 118.49 	 
H 	 -28.1024 	 63.2742 	 119.698 	 
C 	 -29.5228 	 61.1895 	 120.765 	 
H 	 -30.5806 	 60.8431 	 120.558 	 
H 	 -29.5107 	 62.1974 	 121.272 	 
C 	 -28.915 	 60.1722 	 121.769 	 
H 	 -27.9242 	 60.5454 	 121.831 	 
H 	 -28.8937 	 59.2099 	 121.363 	 
C 	 -29.6632 	 60.2897 	 123.077 	 
H 	 -29.2316 	 61.1682 	 123.534 	 
H 	 -29.4193 	 59.3992 	 123.683 	 
H 	 -30.7043 	 60.3364 	 122.941 	 
H 	 -30.6833 	 55.6924 	 117.638 	 
H 	 -26.6179 	 62.9404 	 117.582 	 
