34

S 	 -14.6092 	 54.1747 	 61.048 	 
C 	 -13.711 	 52.6675 	 61.1935 	 
C 	 -12.6956 	 52.7806 	 62.1482 	 
C 	 -12.608 	 54.1445 	 62.5916 	 
C 	 -13.7273 	 54.9184 	 62.3665 	 
H 	 -11.8573 	 54.4717 	 63.3012 	 
C 	 -11.5375 	 51.8174 	 62.3133 	 
H 	 -10.6274 	 52.3306 	 62.1196 	 
H 	 -11.6048 	 51.093 	 61.47 	 
C 	 -11.4368 	 51.0201 	 63.6581 	 
H 	 -11.3825 	 51.7136 	 64.4614 	 
H 	 -12.2777 	 50.3499 	 63.8909 	 
C 	 -10.1659 	 50.1548 	 63.6918 	 
H 	 -10.1583 	 49.5931 	 62.7994 	 
H 	 -9.24641 	 50.6879 	 63.7007 	 
H 	 -10.1631 	 49.4696 	 64.5806 	 
S 	 -14.3489 	 57.5513 	 61.6237 	 
C 	 -14.195 	 58.7803 	 62.8778 	 
C 	 -14.199 	 58.2197 	 64.1363 	 
C 	 -14.0494 	 56.8029 	 64.1177 	 
C 	 -14.0265 	 56.2652 	 62.8284 	 
H 	 -14.3209 	 58.7994 	 64.9978 	 
C 	 -14.0016 	 55.9593 	 65.3929 	 
H 	 -14.1039 	 54.9221 	 65.0492 	 
H 	 -14.8745 	 56.1652 	 65.9944 	 
C 	 -12.665 	 56.0624 	 66.1944 	 
H 	 -12.3962 	 57.0773 	 66.3923 	 
H 	 -11.8469 	 55.7677 	 65.558 	 
C 	 -12.7613 	 55.1449 	 67.4103 	 
H 	 -11.8169 	 55.0032 	 67.9792 	 
H 	 -13.1834 	 54.1583 	 67.0516 	 
H 	 -13.4111 	 55.6562 	 68.095 	 
H 	 -13.8307 	 51.7671 	 60.6036 	 
H 	 -14.1913 	 59.9166 	 62.783 	 
