34

S 	 12.9563 	 -13.1334 	 78.194 	 
C 	 12.6375 	 -14.6127 	 79.0656 	 
C 	 11.6873 	 -15.4362 	 78.4876 	 
C 	 11.2661 	 -14.8282 	 77.1999 	 
C 	 11.9837 	 -13.6997 	 76.8395 	 
H 	 10.4515 	 -15.0989 	 76.5726 	 
C 	 11.0803 	 -16.6637 	 79.2154 	 
H 	 11.7184 	 -17.0794 	 80.0193 	 
H 	 11.0087 	 -17.6217 	 78.6292 	 
C 	 9.6145 	 -16.3824 	 79.795 	 
H 	 9.79553 	 -15.616 	 80.5658 	 
H 	 9.06975 	 -15.9799 	 78.9447 	 
C 	 8.8567 	 -17.6145 	 80.3624 	 
H 	 9.49786 	 -18.2837 	 80.9066 	 
H 	 7.91464 	 -17.3336 	 80.9311 	 
H 	 8.49956 	 -18.2135 	 79.5197 	 
S 	 10.9207 	 -11.4612 	 75.5613 	 
C 	 11.287 	 -11.2445 	 73.8348 	 
C 	 12.1125 	 -12.22 	 73.314 	 
C 	 12.3863 	 -13.2643 	 74.284 	 
C 	 11.8857 	 -12.9599 	 75.5808 	 
H 	 12.4198 	 -12.2427 	 72.327 	 
C 	 13.1271 	 -14.5298 	 73.8726 	 
H 	 12.3446 	 -15.1772 	 73.3968 	 
H 	 13.4483 	 -15.0317 	 74.8169 	 
C 	 14.3417 	 -14.3108 	 72.9586 	 
H 	 14.8075 	 -13.4164 	 73.3633 	 
H 	 14.0688 	 -14.0549 	 71.9158 	 
C 	 15.1916 	 -15.6049 	 72.9413 	 
H 	 14.524 	 -16.4119 	 72.9201 	 
H 	 15.7888 	 -15.667 	 73.8248 	 
H 	 15.8071 	 -15.6489 	 72.0651 	 
H 	 13.1135 	 -14.7458 	 80.0401 	 
H 	 10.8699 	 -10.4007 	 73.2469 	 
