34

S 	 4.52695 	 -12.4875 	 58.1482 	 
C 	 4.90554 	 -11.7007 	 59.6894 	 
C 	 4.50468 	 -12.4326 	 60.7657 	 
C 	 3.88228 	 -13.6327 	 60.3395 	 
C 	 3.7907 	 -13.8371 	 59.0449 	 
H 	 3.39491 	 -14.261 	 61.0234 	 
C 	 4.56405 	 -11.9471 	 62.2053 	 
H 	 3.53967 	 -11.9506 	 62.5422 	 
H 	 4.74843 	 -10.8637 	 62.3319 	 
C 	 5.41004 	 -12.741 	 63.1794 	 
H 	 5.17279 	 -13.7551 	 62.9646 	 
H 	 6.46289 	 -12.6497 	 62.8763 	 
C 	 5.27364 	 -12.3574 	 64.6664 	 
H 	 5.71225 	 -13.105 	 65.2927 	 
H 	 5.71383 	 -11.3986 	 64.9449 	 
H 	 4.30128 	 -12.4287 	 65.1175 	 
S 	 3.74078 	 -15.4572 	 56.8079 	 
C 	 2.56138 	 -16.6449 	 56.6647 	 
C 	 1.77254 	 -16.724 	 57.7789 	 
C 	 2.165 	 -15.7947 	 58.7401 	 
C 	 3.32582 	 -15.0772 	 58.4116 	 
H 	 0.802705 	 -17.2329 	 57.7233 	 
C 	 1.39981 	 -15.7484 	 59.9945 	 
H 	 0.357586 	 -15.6404 	 59.6712 	 
H 	 1.43138 	 -14.8022 	 60.5059 	 
C 	 1.72239 	 -16.8451 	 60.951 	 
H 	 2.8044 	 -16.8552 	 61.1112 	 
H 	 1.36125 	 -17.8431 	 60.5652 	 
C 	 1.079 	 -16.6197 	 62.3515 	 
H 	 0.0444399 	 -16.6315 	 62.2619 	 
H 	 1.25146 	 -15.5588 	 62.7176 	 
H 	 1.4176 	 -17.3285 	 63.0998 	 
H 	 5.34558 	 -10.6879 	 59.8046 	 
H 	 2.49033 	 -17.2182 	 55.7531 	 
