34

S 	 -11.5772 	 58.3258 	 57.2558 	 
C 	 -11.6222 	 57.8021 	 55.5179 	 
C 	 -11.6967 	 58.9322 	 54.7297 	 
C 	 -11.8246 	 60.2013 	 55.5122 	 
C 	 -11.9548 	 59.9957 	 56.8557 	 
H 	 -11.7874 	 61.1764 	 55.0411 	 
C 	 -11.6243 	 58.9649 	 53.2597 	 
H 	 -12.5842 	 58.8492 	 52.7446 	 
H 	 -11.1821 	 58.0985 	 52.991 	 
C 	 -10.8788 	 60.1968 	 52.5671 	 
H 	 -10.6476 	 59.8351 	 51.5732 	 
H 	 -11.4417 	 61.1331 	 52.4392 	 
C 	 -9.56629 	 60.4593 	 53.1563 	 
H 	 -8.87148 	 59.6737 	 52.9294 	 
H 	 -9.18087 	 61.3858 	 52.7386 	 
H 	 -9.59955 	 60.6322 	 54.2315 	 
S 	 -11.0864 	 60.8956 	 59.3063 	 
C 	 -11.877 	 62.3598 	 59.9738 	 
C 	 -13.0253 	 62.6959 	 59.2438 	 
C 	 -13.1713 	 61.8388 	 58.1126 	 
C 	 -12.1528 	 60.9542 	 57.9106 	 
H 	 -13.7098 	 63.4899 	 59.5517 	 
C 	 -14.3738 	 62.0467 	 57.2103 	 
H 	 -15.2008 	 61.553 	 57.6818 	 
H 	 -14.0678 	 61.5509 	 56.3029 	 
C 	 -14.6724 	 63.5639 	 56.9234 	 
H 	 -15.0793 	 63.963 	 57.8131 	 
H 	 -15.5352 	 63.6616 	 56.1685 	 
C 	 -13.4063 	 64.3376 	 56.4463 	 
H 	 -12.7381 	 64.5501 	 57.2878 	 
H 	 -13.6137 	 65.2955 	 55.9696 	 
H 	 -12.9903 	 63.6887 	 55.6728 	 
H 	 -11.497 	 56.8436 	 55.2137 	 
H 	 -11.6775 	 62.6595 	 61.0102 	 
