34

S 	 16.5756 	 9.35944 	 88.1306 	 
C 	 17.6732 	 9.76505 	 86.85 	 
C 	 17.215 	 10.8918 	 86.1432 	 
C 	 16.0795 	 11.4658 	 86.8167 	 
C 	 15.5941 	 10.7765 	 87.8966 	 
H 	 15.6526 	 12.3858 	 86.3413 	 
C 	 17.9924 	 11.5645 	 85.0143 	 
H 	 17.5935 	 12.4982 	 84.8318 	 
H 	 17.7533 	 11.1892 	 84.0066 	 
C 	 19.5332 	 11.7898 	 85.1762 	 
H 	 19.9942 	 10.8015 	 85.2027 	 
H 	 19.8877 	 12.332 	 84.3187 	 
C 	 19.8862 	 12.5517 	 86.4797 	 
H 	 20.9462 	 12.5516 	 86.5554 	 
H 	 19.4473 	 13.5228 	 86.378 	 
H 	 19.451 	 12.176 	 87.4702 	 
S 	 14.4206 	 12.5343 	 89.6544 	 
C 	 12.9445 	 12.1539 	 90.5734 	 
C 	 12.3563 	 11.0242 	 89.9642 	 
C 	 13.156 	 10.4119 	 88.9488 	 
C 	 14.4154 	 11.0893 	 88.7393 	 
H 	 11.3204 	 10.8263 	 90.3268 	 
C 	 12.6833 	 9.22678 	 88.119 	 
H 	 13.3726 	 9.15248 	 87.2256 	 
H 	 11.6221 	 9.41806 	 87.8545 	 
C 	 12.7964 	 7.83062 	 88.885 	 
H 	 13.8687 	 7.83218 	 89.3144 	 
H 	 12.7063 	 7.01944 	 88.114 	 
C 	 11.8006 	 7.73476 	 90.0799 	 
H 	 11.9171 	 8.56484 	 90.7553 	 
H 	 11.9671 	 6.93992 	 90.8039 	 
H 	 10.7672 	 7.7083 	 89.791 	 
H 	 18.4753 	 9.15844 	 86.5703 	 
H 	 12.4712 	 12.7874 	 91.2655 	 
