34

S 	 -34.3802 	 41.188 	 97.7859 	 
C 	 -33.7459 	 39.61 	 97.1673 	 
C 	 -34.4986 	 38.5382 	 97.5974 	 
C 	 -35.6475 	 38.941 	 98.3724 	 
C 	 -35.7041 	 40.3441 	 98.632 	 
H 	 -36.4002 	 38.3449 	 98.7914 	 
C 	 -34.1864 	 37.0686 	 97.3657 	 
H 	 -35.1055 	 36.5389 	 97.1697 	 
H 	 -33.7303 	 36.6954 	 98.2815 	 
C 	 -33.2176 	 36.7451 	 96.1894 	 
H 	 -33.5335 	 37.2204 	 95.2357 	 
H 	 -32.2886 	 37.2346 	 96.4085 	 
C 	 -33.0142 	 35.1954 	 95.9546 	 
H 	 -32.1438 	 34.8688 	 95.3508 	 
H 	 -32.7972 	 34.7316 	 96.944 	 
H 	 -33.8318 	 34.6147 	 95.4679 	 
S 	 -37.6125 	 42.3389 	 98.6389 	 
C 	 -38.6883 	 42.5058 	 99.9869 	 
C 	 -38.402 	 41.6258 	 101.029 	 
C 	 -37.2894 	 40.7605 	 100.673 	 
C 	 -36.6773 	 41.0862 	 99.4006 	 
H 	 -39.0296 	 41.604 	 101.929 	 
C 	 -36.6531 	 39.7336 	 101.622 	 
H 	 -36.1469 	 38.9695 	 101.075 	 
H 	 -37.3316 	 39.2024 	 102.335 	 
C 	 -35.5161 	 40.1851 	 102.458 	 
H 	 -35.8594 	 41.0414 	 103.073 	 
H 	 -34.7189 	 40.5614 	 101.744 	 
C 	 -34.953 	 39.1077 	 103.441 	 
H 	 -35.0967 	 39.3996 	 104.449 	 
H 	 -33.8857 	 39.096 	 103.41 	 
H 	 -35.4219 	 38.149 	 103.344 	 
H 	 -32.7474 	 39.5276 	 96.7692 	 
H 	 -39.5614 	 43.103 	 100.024 	 
