34

S 	 -3.2068 	 47.1563 	 35.1852 	 
C 	 -2.25201 	 46.3088 	 36.3299 	 
C 	 -1.03957 	 46.0178 	 35.8528 	 
C 	 -0.856956 	 46.5727 	 34.5267 	 
C 	 -1.85233 	 47.3917 	 34.154 	 
H 	 -0.0197185 	 46.6006 	 33.8732 	 
C 	 0.0595431 	 45.2137 	 36.5566 	 
H 	 -0.30044 	 44.3648 	 37.0805 	 
H 	 0.309106 	 45.767 	 37.4758 	 
C 	 1.41783 	 44.9633 	 35.7806 	 
H 	 1.96432 	 44.219 	 36.3951 	 
H 	 1.18711 	 44.4716 	 34.8499 	 
C 	 2.26746 	 46.187 	 35.5374 	 
H 	 1.84462 	 46.9689 	 34.9765 	 
H 	 2.61296 	 46.3812 	 36.6013 	 
H 	 3.19987 	 45.9538 	 35.0415 	 
S 	 -3.3787 	 48.1881 	 31.9936 	 
C 	 -2.57127 	 49.1364 	 30.7618 	 
C 	 -1.35644 	 49.6429 	 31.136 	 
C 	 -0.943823 	 49.009 	 32.3307 	 
C 	 -1.89465 	 48.1478 	 32.9154 	 
H 	 -0.834144 	 50.3623 	 30.5989 	 
C 	 0.451129 	 49.2237 	 33.0011 	 
H 	 1.07924 	 48.3657 	 32.7593 	 
H 	 0.343255 	 48.9762 	 34.101 	 
C 	 1.23263 	 50.5862 	 32.8422 	 
H 	 0.644286 	 51.456 	 32.8716 	 
H 	 1.49393 	 50.5141 	 31.7767 	 
C 	 2.37417 	 50.6984 	 33.739 	 
H 	 3.17822 	 49.9583 	 33.6204 	 
H 	 1.96022 	 50.7812 	 34.7874 	 
H 	 2.90652 	 51.657 	 33.4931 	 
H 	 -2.71858 	 45.8806 	 37.2483 	 
H 	 -3.23573 	 49.5553 	 30.0627 	 
