34

S 	 7.82121 	 -19.5742 	 82.8584 	 
C 	 7.84109 	 -20.8028 	 84.0457 	 
C 	 7.11068 	 -20.4372 	 85.1586 	 
C 	 6.62799 	 -19.0864 	 85.1026 	 
C 	 6.82646 	 -18.4674 	 83.8685 	 
H 	 6.11152 	 -18.5564 	 85.8861 	 
C 	 6.93425 	 -21.172 	 86.4886 	 
H 	 7.37354 	 -20.5992 	 87.3143 	 
H 	 7.44915 	 -22.1245 	 86.4436 	 
C 	 5.49622 	 -21.4423 	 86.8818 	 
H 	 5.48045 	 -21.8776 	 87.8862 	 
H 	 5.09588 	 -20.4878 	 86.9082 	 
C 	 4.69411 	 -22.389 	 85.9807 	 
H 	 4.64084 	 -21.955 	 84.9713 	 
H 	 5.2955 	 -23.3187 	 85.8405 	 
H 	 3.74156 	 -22.5735 	 86.4362 	 
S 	 5.1426 	 -16.9822 	 82.3351 	 
C 	 5.1641 	 -15.2767 	 82.4242 	 
C 	 6.15949 	 -14.8197 	 83.3532 	 
C 	 6.81481 	 -15.8955 	 84.017 	 
C 	 6.45072 	 -17.1224 	 83.4739 	 
H 	 6.33542 	 -13.7323 	 83.4582 	 
C 	 7.80942 	 -15.6995 	 85.2085 	 
H 	 8.04251 	 -16.6604 	 85.5378 	 
H 	 7.28683 	 -15.1486 	 86.0122 	 
C 	 9.08891 	 -15.0054 	 84.8715 	 
H 	 9.78869 	 -14.9827 	 85.7652 	 
H 	 8.72335 	 -13.9678 	 84.6989 	 
C 	 9.8131 	 -15.5094 	 83.6448 	 
H 	 9.33113 	 -15.2197 	 82.688 	 
H 	 9.9871 	 -16.5728 	 83.6969 	 
H 	 10.8011 	 -15.0899 	 83.5974 	 
H 	 8.4889 	 -21.6504 	 84.056 	 
H 	 4.64743 	 -14.5523 	 81.7865 	 
