34

S 	 -26.0198 	 -7.46908 	 90.8465 	 
C 	 -26.8618 	 -8.81394 	 90.0983 	 
C 	 -26.3134 	 -9.15067 	 88.8358 	 
C 	 -25.1858 	 -8.31214 	 88.5167 	 
C 	 -25.0566 	 -7.31614 	 89.4369 	 
H 	 -24.6245 	 -8.54229 	 87.6211 	 
C 	 -26.703 	 -10.4328 	 88.0475 	 
H 	 -26.5409 	 -10.3298 	 86.9417 	 
H 	 -27.7562 	 -10.4239 	 88.3088 	 
C 	 -26.1715 	 -11.7256 	 88.6598 	 
H 	 -26.4913 	 -11.7513 	 89.7216 	 
H 	 -26.7386 	 -12.5755 	 88.2338 	 
C 	 -24.6492 	 -12.0006 	 88.5617 	 
H 	 -24.2926 	 -11.8498 	 87.5261 	 
H 	 -23.9756 	 -11.347 	 89.1076 	 
H 	 -24.3787 	 -13.0066 	 88.9189 	 
S 	 -22.9132 	 -6.35158 	 90.8992 	 
C 	 -21.7841 	 -5.35803 	 90.0756 	 
C 	 -22.2279 	 -4.94711 	 88.8569 	 
C 	 -23.4432 	 -5.5729 	 88.4585 	 
C 	 -23.9436 	 -6.40935 	 89.4611 	 
H 	 -21.6771 	 -4.34395 	 88.1763 	 
C 	 -24.009 	 -5.28759 	 87.0737 	 
H 	 -24.0078 	 -4.23641 	 87.019 	 
H 	 -24.9878 	 -5.64973 	 87.0125 	 
C 	 -23.3108 	 -5.96935 	 85.9321 	 
H 	 -23.4964 	 -7.05066 	 86.0023 	 
H 	 -22.2558 	 -5.8092 	 85.979 	 
C 	 -23.76 	 -5.48505 	 84.5701 	 
H 	 -23.1086 	 -5.88418 	 83.8177 	 
H 	 -23.8135 	 -4.35392 	 84.581 	 
H 	 -24.828 	 -5.73138 	 84.3457 	 
H 	 -27.6471 	 -9.42152 	 90.5525 	 
H 	 -20.8764 	 -4.96914 	 90.4979 	 
