34

S 	 12.0583 	 -27.8934 	 83.3917 	 
C 	 11.2854 	 -28.3622 	 84.8528 	 
C 	 10.2145 	 -27.5433 	 85.1562 	 
C 	 10.1908 	 -26.4123 	 84.2678 	 
C 	 11.2768 	 -26.3607 	 83.47 	 
H 	 9.49319 	 -25.5777 	 84.3429 	 
C 	 9.31538 	 -27.5462 	 86.4339 	 
H 	 9.9836 	 -27.3866 	 87.3578 	 
H 	 8.86173 	 -28.5055 	 86.4873 	 
C 	 8.16102 	 -26.5047 	 86.3937 	 
H 	 8.47459 	 -25.4248 	 86.33 	 
H 	 7.62351 	 -26.5713 	 85.411 	 
C 	 7.21033 	 -26.6476 	 87.6482 	 
H 	 7.66094 	 -26.4294 	 88.6339 	 
H 	 6.42851 	 -25.9035 	 87.5015 	 
H 	 6.79975 	 -27.6661 	 87.7094 	 
S 	 11.9049 	 -26.1758 	 80.7686 	 
C 	 12.0299 	 -24.6385 	 80.0142 	 
C 	 11.4502 	 -23.6204 	 80.8387 	 
C 	 11.1141 	 -24.0641 	 82.2073 	 
C 	 11.4402 	 -25.3698 	 82.34 	 
H 	 11.3228 	 -22.5967 	 80.5837 	 
C 	 10.5973 	 -22.9703 	 83.194 	 
H 	 11.1887 	 -22.1316 	 83.1055 	 
H 	 10.8128 	 -23.3451 	 84.2663 	 
C 	 9.1189 	 -22.5387 	 83.075 	 
H 	 8.55648 	 -23.3965 	 83.4413 	 
H 	 8.82994 	 -22.441 	 82.0104 	 
C 	 8.94226 	 -21.3063 	 83.9894 	 
H 	 7.97679 	 -20.9715 	 83.8095 	 
H 	 9.78318 	 -20.5857 	 83.913 	 
H 	 8.92709 	 -21.5962 	 84.9829 	 
H 	 11.5386 	 -29.173 	 85.46 	 
H 	 12.3375 	 -24.4404 	 79.0603 	 
