34

S 	 4.51387 	 -17.0595 	 88.8612 	 
C 	 4.08181 	 -17.1538 	 87.16 	 
C 	 5.09824 	 -17.6982 	 86.3664 	 
C 	 6.19851 	 -18.0813 	 87.169 	 
C 	 5.99766 	 -17.9013 	 88.5712 	 
H 	 7.04235 	 -18.6781 	 86.8663 	 
C 	 4.91464 	 -18.0129 	 84.9471 	 
H 	 5.7816 	 -17.7677 	 84.358 	 
H 	 4.1765 	 -17.3864 	 84.5136 	 
C 	 4.56777 	 -19.4831 	 84.5563 	 
H 	 4.90371 	 -19.5406 	 83.5583 	 
H 	 5.0597 	 -20.2467 	 85.1837 	 
C 	 3.09157 	 -19.7757 	 84.6674 	 
H 	 2.92251 	 -19.825 	 85.7222 	 
H 	 2.38752 	 -18.9525 	 84.4135 	 
H 	 2.77764 	 -20.7313 	 84.1461 	 
S 	 6.41583 	 -19.5734 	 90.9093 	 
C 	 7.96808 	 -19.4377 	 91.6884 	 
C 	 8.8074 	 -18.6514 	 90.9632 	 
C 	 8.21255 	 -18.0357 	 89.877 	 
C 	 6.92844 	 -18.4182 	 89.641 	 
H 	 9.73841 	 -18.5661 	 91.4469 	 
C 	 9.02223 	 -17.1843 	 88.9022 	 
H 	 8.29201 	 -16.5151 	 88.4141 	 
H 	 9.39197 	 -17.9068 	 88.2292 	 
C 	 10.2798 	 -16.4955 	 89.5044 	 
H 	 10.8226 	 -17.1629 	 90.0958 	 
H 	 10.07 	 -15.6365 	 90.1477 	 
C 	 11.3011 	 -15.8852 	 88.5364 	 
H 	 12.0283 	 -15.2138 	 88.9214 	 
H 	 10.8916 	 -15.3426 	 87.7179 	 
H 	 11.9139 	 -16.7431 	 88.1381 	 
H 	 3.18717 	 -16.7773 	 86.6991 	 
H 	 8.33956 	 -19.9302 	 92.5538 	 
