34

S 	 -33.465 	 59.489 	 116.169 	 
C 	 -34.9042 	 59.5569 	 117.124 	 
C 	 -35.219 	 60.9417 	 117.268 	 
C 	 -34.2654 	 61.8694 	 116.67 	 
C 	 -33.1286 	 61.2428 	 116.264 	 
H 	 -34.2879 	 62.922 	 116.54 	 
C 	 -36.5948 	 61.4547 	 117.709 	 
H 	 -36.4139 	 62.3155 	 118.399 	 
H 	 -37.1249 	 60.7428 	 118.373 	 
C 	 -37.5919 	 61.7753 	 116.579 	 
H 	 -38.5916 	 62.0576 	 117.055 	 
H 	 -37.2586 	 62.6088 	 115.961 	 
C 	 -37.8711 	 60.5873 	 115.695 	 
H 	 -38.607 	 60.8264 	 114.953 	 
H 	 -36.9066 	 60.3221 	 115.227 	 
H 	 -38.2875 	 59.7601 	 116.257 	 
S 	 -31.2671 	 61.5096 	 114.236 	 
C 	 -30.0614 	 62.812 	 114.313 	 
C 	 -30.1142 	 63.4617 	 115.513 	 
C 	 -31.166 	 62.9341 	 116.335 	 
C 	 -31.9048 	 61.8757 	 115.795 	 
H 	 -29.3419 	 64.1801 	 115.653 	 
C 	 -31.2781 	 63.3649 	 117.763 	 
H 	 -31.8386 	 62.565 	 118.284 	 
H 	 -31.7649 	 64.3213 	 117.766 	 
C 	 -30.011 	 63.6985 	 118.638 	 
H 	 -29.5025 	 64.4892 	 118.145 	 
H 	 -29.385 	 62.8871 	 118.516 	 
C 	 -30.1018 	 63.8861 	 120.141 	 
H 	 -30.734 	 64.8014 	 120.485 	 
H 	 -29.1038 	 63.9232 	 120.509 	 
H 	 -30.5091 	 62.9288 	 120.58 	 
H 	 -35.7408 	 58.8319 	 117.016 	 
H 	 -29.2512 	 62.8455 	 113.54 	 
