34

S 	 -39.6608 	 21.8772 	 80.6185 	 
C 	 -39.7339 	 22.9213 	 82.0527 	 
C 	 -39.811 	 24.2694 	 81.6945 	 
C 	 -39.7757 	 24.5004 	 80.2811 	 
C 	 -39.7256 	 23.3237 	 79.5721 	 
H 	 -39.8757 	 25.494 	 79.7602 	 
C 	 -39.9422 	 25.4225 	 82.7057 	 
H 	 -40.6503 	 25.0724 	 83.4159 	 
H 	 -40.3849 	 26.3258 	 82.3573 	 
C 	 -38.6042 	 25.6213 	 83.3974 	 
H 	 -38.2779 	 24.693 	 83.8243 	 
H 	 -37.8057 	 26.0019 	 82.8031 	 
C 	 -38.804 	 26.6399 	 84.5116 	 
H 	 -39.3497 	 26.2227 	 85.3265 	 
H 	 -37.8864 	 26.8249 	 85.133 	 
H 	 -39.2026 	 27.6459 	 84.1723 	 
S 	 -38.4196 	 22.3225 	 77.3027 	 
C 	 -39.1005 	 22.5905 	 75.7402 	 
C 	 -40.3036 	 23.1936 	 75.7766 	 
C 	 -40.6273 	 23.6675 	 77.1211 	 
C 	 -39.7233 	 23.2825 	 78.0609 	 
H 	 -40.9046 	 23.4106 	 74.8698 	 
C 	 -41.9495 	 24.4543 	 77.2802 	 
H 	 -41.9583 	 25.1151 	 76.446 	 
H 	 -41.8282 	 25.0492 	 78.1574 	 
C 	 -43.3333 	 23.7264 	 77.2908 	 
H 	 -43.3128 	 23.1287 	 76.4284 	 
H 	 -43.9821 	 24.5841 	 77.058 	 
C 	 -43.5422 	 22.9374 	 78.5071 	 
H 	 -44.5061 	 22.5241 	 78.4913 	 
H 	 -43.408 	 23.6068 	 79.36 	 
H 	 -42.849 	 22.2458 	 78.7304 	 
H 	 -39.7954 	 22.6009 	 83.071 	 
H 	 -38.5541 	 22.3323 	 74.8005 	 
