34

S 	 -40.6093 	 -7.98537 	 99.9049 	 
C 	 -42.2845 	 -8.24881 	 99.4144 	 
C 	 -43.087 	 -7.18694 	 99.758 	 
C 	 -42.4066 	 -6.32259 	 100.713 	 
C 	 -41.0726 	 -6.59297 	 100.878 	 
H 	 -42.8949 	 -5.47952 	 101.184 	 
C 	 -44.5164 	 -6.90277 	 99.2751 	 
H 	 -44.7286 	 -7.01488 	 98.2595 	 
H 	 -44.6144 	 -5.80338 	 99.5636 	 
C 	 -45.5413 	 -7.71444 	 100.049 	 
H 	 -45.5697 	 -8.67692 	 99.5026 	 
H 	 -45.3217 	 -7.83649 	 101.083 	 
C 	 -46.9714 	 -7.14805 	 99.8125 	 
H 	 -47.2229 	 -7.25715 	 98.7995 	 
H 	 -47.7004 	 -7.78921 	 100.381 	 
H 	 -47.0129 	 -6.10926 	 100.128 	 
S 	 -39.1137 	 -4.73015 	 100.962 	 
C 	 -38.1075 	 -4.59849 	 102.348 	 
C 	 -38.6369 	 -5.15096 	 103.463 	 
C 	 -39.9107 	 -5.78415 	 103.15 	 
C 	 -40.1689 	 -5.86836 	 101.778 	 
H 	 -38.0685 	 -5.07159 	 104.385 	 
C 	 -40.7042 	 -6.60236 	 104.165 	 
H 	 -40.0019 	 -7.29176 	 104.569 	 
H 	 -41.5363 	 -7.04678 	 103.572 	 
C 	 -41.3353 	 -5.75373 	 105.235 	 
H 	 -42.0626 	 -5.00315 	 104.814 	 
H 	 -40.5746 	 -5.07355 	 105.625 	 
C 	 -41.8847 	 -6.44918 	 106.407 	 
H 	 -42.2919 	 -5.72065 	 107.044 	 
H 	 -41.0931 	 -6.85825 	 107.047 	 
H 	 -42.5787 	 -7.22824 	 106.084 	 
H 	 -42.6721 	 -8.99092 	 98.7735 	 
H 	 -37.1198 	 -4.0923 	 102.336 	 
