34

S 	 -55.418 	 41.7119 	 114.094 	 
C 	 -53.9419 	 41.4461 	 113.222 	 
C 	 -54.2376 	 41.093 	 111.933 	 
C 	 -55.6152 	 40.9486 	 111.64 	 
C 	 -56.3948 	 41.2798 	 112.683 	 
H 	 -56.0725 	 40.5948 	 110.809 	 
C 	 -53.154 	 40.6693 	 110.853 	 
H 	 -52.9921 	 39.5947 	 111.003 	 
H 	 -52.2678 	 41.272 	 111.028 	 
C 	 -53.6179 	 40.9416 	 109.379 	 
H 	 -52.9224 	 40.5352 	 108.691 	 
H 	 -54.5421 	 40.4585 	 109.175 	 
C 	 -53.5716 	 42.3945 	 109.13 	 
H 	 -54.2759 	 42.901 	 109.782 	 
H 	 -52.6205 	 42.8689 	 109.233 	 
H 	 -53.9635 	 42.4351 	 108.069 	 
S 	 -58.6512 	 39.8323 	 112.267 	 
C 	 -60.2198 	 40.5809 	 112.396 	 
C 	 -60.132 	 41.9104 	 112.686 	 
C 	 -58.7863 	 42.3502 	 112.769 	 
C 	 -57.8523 	 41.3355 	 112.641 	 
H 	 -61.1074 	 42.4124 	 112.699 	 
C 	 -58.481 	 43.7832 	 113.186 	 
H 	 -57.3634 	 43.7615 	 113.179 	 
H 	 -58.8273 	 43.961 	 114.26 	 
C 	 -58.9491 	 44.9721 	 112.251 	 
H 	 -60.0102 	 45.1648 	 112.291 	 
H 	 -58.8111 	 44.5986 	 111.228 	 
C 	 -58.2633 	 46.2829 	 112.616 	 
H 	 -58.4178 	 47.0056 	 111.821 	 
H 	 -57.154 	 46.2317 	 112.759 	 
H 	 -58.7468 	 46.7559 	 113.491 	 
H 	 -52.9424 	 41.6487 	 113.646 	 
H 	 -61.1052 	 39.9962 	 112.168 	 
