34

S 	 -6.09155 	 -7.08725 	 83.4705 	 
C 	 -6.84752 	 -8.65641 	 83.5796 	 
C 	 -6.65575 	 -9.25276 	 84.7981 	 
C 	 -5.8258 	 -8.41809 	 85.6085 	 
C 	 -5.3185 	 -7.32335 	 84.9745 	 
H 	 -5.44789 	 -8.6963 	 86.6049 	 
C 	 -7.0646 	 -10.7023 	 85.2613 	 
H 	 -8.04063 	 -10.9729 	 85.0423 	 
H 	 -6.87313 	 -10.7884 	 86.3296 	 
C 	 -5.98972 	 -11.6253 	 84.7127 	 
H 	 -6.05707 	 -11.6594 	 83.6471 	 
H 	 -5.06028 	 -11.2063 	 85.0629 	 
C 	 -6.12171 	 -13.0657 	 85.075 	 
H 	 -5.34281 	 -13.689 	 84.6105 	 
H 	 -5.92559 	 -13.265 	 86.09 	 
H 	 -7.08068 	 -13.5696 	 84.88 	 
S 	 -4.71448 	 -5.52842 	 87.0278 	 
C 	 -3.17586 	 -4.66811 	 87.0184 	 
C 	 -2.41927 	 -5.10618 	 85.9173 	 
C 	 -3.02691 	 -6.13524 	 85.103 	 
C 	 -4.34934 	 -6.35465 	 85.4718 	 
H 	 -1.46466 	 -4.61679 	 85.7873 	 
C 	 -2.2342 	 -6.71936 	 83.947 	 
H 	 -1.51639 	 -5.96164 	 83.5631 	 
H 	 -2.92213 	 -6.98005 	 83.153 	 
C 	 -1.49365 	 -8.06989 	 84.3446 	 
H 	 -2.23561 	 -8.79987 	 84.361 	 
H 	 -1.16167 	 -8.03469 	 85.3484 	 
C 	 -0.264567 	 -8.40834 	 83.4573 	 
H 	 -0.486236 	 -8.5513 	 82.4231 	 
H 	 0.23281 	 -9.36429 	 83.6944 	 
H 	 0.468985 	 -7.66122 	 83.7063 	 
H 	 -7.37081 	 -9.18036 	 82.8174 	 
H 	 -2.84114 	 -3.89609 	 87.7129 	 
