34

S 	 31.5794 	 -6.52106 	 79.0665 	 
C 	 32.9649 	 -5.43448 	 78.8685 	 
C 	 32.544 	 -4.06746 	 78.7488 	 
C 	 31.1609 	 -3.93242 	 78.9666 	 
C 	 30.4468 	 -5.18141 	 78.9626 	 
H 	 30.5955 	 -3.05803 	 78.9538 	 
C 	 33.4814 	 -2.91122 	 78.5564 	 
H 	 32.9583 	 -2.11278 	 77.9733 	 
H 	 34.3724 	 -3.20934 	 78.0269 	 
C 	 34.078 	 -2.37119 	 79.9101 	 
H 	 34.5489 	 -3.20857 	 80.3991 	 
H 	 34.8729 	 -1.66204 	 79.7267 	 
C 	 33.046 	 -1.66703 	 80.7948 	 
H 	 33.6851 	 -1.24969 	 81.6241 	 
H 	 32.5916 	 -0.874459 	 80.3133 	 
H 	 32.2665 	 -2.32708 	 81.2406 	 
S 	 28.4481 	 -6.58468 	 77.7403 	 
C 	 26.7746 	 -6.32893 	 78.0917 	 
C 	 26.6776 	 -5.47442 	 79.1648 	 
C 	 27.9118 	 -4.8783 	 79.6596 	 
C 	 28.9889 	 -5.38844 	 78.9567 	 
H 	 25.6611 	 -5.24133 	 79.6068 	 
C 	 27.9837 	 -3.94484 	 80.7774 	 
H 	 27.2756 	 -3.1577 	 80.6657 	 
H 	 28.9097 	 -3.49031 	 80.7263 	 
C 	 27.9621 	 -4.67187 	 82.2211 	 
H 	 28.3162 	 -3.88883 	 82.9816 	 
H 	 28.7075 	 -5.51759 	 82.2817 	 
C 	 26.5304 	 -5.18403 	 82.5099 	 
H 	 26.443 	 -6.12828 	 81.9802 	 
H 	 25.8005 	 -4.3964 	 82.1845 	 
H 	 26.4184 	 -5.36168 	 83.5304 	 
H 	 34.015 	 -5.6347 	 78.8902 	 
H 	 25.9242 	 -6.78645 	 77.6128 	 
