34

S 	 -33.3789 	 74.8117 	 162.681 	 
C 	 -31.9675 	 74.2908 	 161.797 	 
C 	 -32.3107 	 73.7621 	 160.523 	 
C 	 -33.7492 	 73.6297 	 160.449 	 
C 	 -34.4095 	 74.0399 	 161.531 	 
H 	 -34.3311 	 73.1259 	 159.646 	 
C 	 -31.3187 	 73.0854 	 159.578 	 
H 	 -31.7705 	 72.2725 	 159.005 	 
H 	 -30.4814 	 72.6674 	 160.23 	 
C 	 -30.6762 	 74.0219 	 158.466 	 
H 	 -31.2886 	 74.7573 	 157.96 	 
H 	 -29.9226 	 74.6755 	 158.875 	 
C 	 -29.9598 	 73.2747 	 157.359 	 
H 	 -29.1815 	 73.9373 	 156.932 	 
H 	 -29.502 	 72.3596 	 157.604 	 
H 	 -30.6881 	 73.1591 	 156.559 	 
S 	 -36.8848 	 75.3998 	 161.873 	 
C 	 -38.2723 	 74.3623 	 162.209 	 
C 	 -37.9747 	 73.0091 	 162.183 	 
C 	 -36.5376 	 72.8007 	 162.073 	 
C 	 -35.8294 	 73.9258 	 161.778 	 
H 	 -38.706 	 72.1505 	 162.298 	 
C 	 -35.8625 	 71.4234 	 162.079 	 
H 	 -34.8096 	 71.4966 	 162.472 	 
H 	 -35.8359 	 71.0484 	 161.014 	 
C 	 -36.7275 	 70.4015 	 162.874 	 
H 	 -36.2006 	 69.4826 	 162.776 	 
H 	 -37.7388 	 70.1303 	 162.451 	 
C 	 -36.5931 	 70.7587 	 164.415 	 
H 	 -36.985 	 70.0217 	 165.091 	 
H 	 -37.2038 	 71.63 	 164.619 	 
H 	 -35.617 	 71.0176 	 164.716 	 
H 	 -30.9901 	 74.3533 	 162.222 	 
H 	 -39.3393 	 74.6642 	 162.082 	 
