34

S 	 -53.2003 	 38.0458 	 108.466 	 
C 	 -51.5456 	 38.3561 	 107.844 	 
C 	 -50.6748 	 37.578 	 108.547 	 
C 	 -51.3198 	 36.7722 	 109.588 	 
C 	 -52.7072 	 36.9365 	 109.656 	 
H 	 -50.9363 	 35.9638 	 110.305 	 
C 	 -49.2924 	 37.3219 	 108.143 	 
H 	 -49.2277 	 37.7438 	 107.098 	 
H 	 -49.2343 	 36.2639 	 108.069 	 
C 	 -48.2336 	 37.9095 	 109.069 	 
H 	 -48.5712 	 38.8443 	 109.485 	 
H 	 -48.2665 	 37.2345 	 109.903 	 
C 	 -46.8411 	 37.8654 	 108.419 	 
H 	 -46.0186 	 37.7978 	 109.101 	 
H 	 -46.7226 	 37.1157 	 107.668 	 
H 	 -46.8968 	 38.837 	 107.84 	 
S 	 -53.7752 	 36.9796 	 112.206 	 
C 	 -54.885 	 35.7716 	 112.724 	 
C 	 -55.3271 	 35.0876 	 111.58 	 
C 	 -54.6503 	 35.3515 	 110.353 	 
C 	 -53.699 	 36.3028 	 110.564 	 
H 	 -56.0127 	 34.2252 	 111.764 	 
C 	 -54.7222 	 34.6132 	 109.091 	 
H 	 -54.3788 	 35.2624 	 108.275 	 
H 	 -55.7955 	 34.5696 	 108.799 	 
C 	 -54.0636 	 33.2173 	 109.007 	 
H 	 -54.6904 	 32.7007 	 108.266 	 
H 	 -54.0446 	 32.6424 	 109.913 	 
C 	 -52.6333 	 33.2148 	 108.494 	 
H 	 -52.1307 	 32.3346 	 108.315 	 
H 	 -52.016 	 33.9833 	 108.998 	 
H 	 -52.6839 	 33.5721 	 107.468 	 
H 	 -51.2481 	 38.8039 	 106.935 	 
H 	 -55.3475 	 35.7634 	 113.742 	 
