34

S 	 29.8821 	 -8.50063 	 81.7867 	 
C 	 30.2355 	 -7.00467 	 80.9242 	 
C 	 29.1259 	 -6.56078 	 80.1434 	 
C 	 27.9752 	 -7.38267 	 80.3808 	 
C 	 28.203 	 -8.41574 	 81.2495 	 
H 	 26.9488 	 -7.2078 	 79.9503 	 
C 	 28.9532 	 -5.33587 	 79.2503 	 
H 	 28.5089 	 -5.65181 	 78.2991 	 
H 	 29.9627 	 -5.03074 	 79.1245 	 
C 	 28.1 	 -4.17947 	 79.8847 	 
H 	 28.2329 	 -4.22142 	 80.9207 	 
H 	 28.515 	 -3.22978 	 79.5045 	 
C 	 26.5565 	 -4.20627 	 79.5654 	 
H 	 26.3489 	 -3.93904 	 78.5484 	 
H 	 26.1838 	 -5.22245 	 79.7166 	 
H 	 25.9499 	 -3.4893 	 80.1285 	 
S 	 27.7156 	 -11.0859 	 81.6008 	 
C 	 26.1427 	 -11.5996 	 82.1299 	 
C 	 25.3868 	 -10.5477 	 82.5608 	 
C 	 25.9845 	 -9.26848 	 82.2469 	 
C 	 27.2409 	 -9.3879 	 81.7184 	 
H 	 24.4131 	 -10.8265 	 82.9327 	 
C 	 25.299 	 -7.94871 	 82.5998 	 
H 	 24.2156 	 -8.06778 	 82.5199 	 
H 	 25.6401 	 -7.2963 	 81.8975 	 
C 	 25.5593 	 -7.49028 	 84.0669 	 
H 	 24.6926 	 -6.82354 	 84.4285 	 
H 	 26.4035 	 -6.77645 	 84.1598 	 
C 	 25.725 	 -8.63877 	 85.11 	 
H 	 24.8328 	 -9.17604 	 85.2068 	 
H 	 26.0021 	 -8.19922 	 86.0591 	 
H 	 26.581 	 -9.37549 	 85.0416 	 
H 	 31.1694 	 -6.50454 	 80.7908 	 
H 	 25.8655 	 -12.6475 	 82.2604 	 
