34

S 	 -33.3098 	 41.8439 	 98.1482 	 
C 	 -32.4222 	 40.5131 	 98.8418 	 
C 	 -32.5258 	 39.4077 	 98.0883 	 
C 	 -33.4362 	 39.5583 	 96.9912 	 
C 	 -34.1408 	 40.7317 	 97.0884 	 
H 	 -33.8008 	 38.702 	 96.353 	 
C 	 -31.805 	 38.0924 	 98.2953 	 
H 	 -32.4205 	 37.3321 	 97.7258 	 
H 	 -31.898 	 37.8109 	 99.3753 	 
C 	 -30.3331 	 38.1724 	 97.8291 	 
H 	 -30.3824 	 38.4991 	 96.7846 	 
H 	 -29.8503 	 38.9308 	 98.4211 	 
C 	 -29.543 	 36.8268 	 97.9023 	 
H 	 -29.2665 	 36.6119 	 98.9304 	 
H 	 -30.1098 	 35.9663 	 97.4188 	 
H 	 -28.6271 	 36.8779 	 97.2985 	 
S 	 -35.3926 	 42.9989 	 96.1863 	 
C 	 -36.8565 	 42.8825 	 95.2214 	 
C 	 -37.0608 	 41.5517 	 94.8363 	 
C 	 -36.1048 	 40.6351 	 95.3074 	 
C 	 -35.1559 	 41.2332 	 96.1736 	 
H 	 -37.8791 	 41.319 	 94.1953 	 
C 	 -36.1222 	 39.1923 	 94.8868 	 
H 	 -35.1469 	 38.8741 	 94.6562 	 
H 	 -36.5589 	 39.1412 	 93.8805 	 
C 	 -36.7386 	 38.1708 	 95.9032 	 
H 	 -37.7939 	 38.3565 	 96.1662 	 
H 	 -36.1776 	 38.1207 	 96.8403 	 
C 	 -36.5455 	 36.7293 	 95.2723 	 
H 	 -36.8233 	 35.9825 	 95.9693 	 
H 	 -35.5927 	 36.4869 	 94.9629 	 
H 	 -37.1861 	 36.4487 	 94.3935 	 
H 	 -31.8873 	 40.4279 	 99.8139 	 
H 	 -37.5655 	 43.6053 	 94.9261 	 
