34

S 	 -39.5684 	 51.6752 	 117.012 	 
C 	 -40.4731 	 52.8285 	 117.999 	 
C 	 -41.5851 	 53.2716 	 117.335 	 
C 	 -41.6867 	 52.7766 	 116 	 
C 	 -40.7316 	 51.8488 	 115.754 	 
H 	 -42.5408 	 52.9469 	 115.358 	 
C 	 -42.565 	 54.2255 	 117.871 	 
H 	 -42.3754 	 54.3483 	 118.967 	 
H 	 -43.5178 	 53.6916 	 117.891 	 
C 	 -42.4843 	 55.6203 	 117.185 	 
H 	 -42.5593 	 55.4326 	 116.116 	 
H 	 -43.2804 	 56.2885 	 117.405 	 
C 	 -41.1172 	 56.3301 	 117.374 	 
H 	 -40.2387 	 55.6602 	 117.097 	 
H 	 -40.9785 	 57.1911 	 116.697 	 
H 	 -40.9455 	 56.8602 	 118.338 	 
S 	 -40.6879 	 49.347 	 114.406 	 
C 	 -40.2092 	 49.2062 	 112.761 	 
C 	 -40.2095 	 50.462 	 112.159 	 
C 	 -40.4328 	 51.5265 	 113.102 	 
C 	 -40.5522 	 51.0964 	 114.446 	 
H 	 -40.1389 	 50.7573 	 111.09 	 
C 	 -40.3701 	 52.962 	 112.661 	 
H 	 -39.6615 	 52.9109 	 111.9 	 
H 	 -40.0348 	 53.4968 	 113.505 	 
C 	 -41.7522 	 53.4383 	 112.094 	 
H 	 -42.4994 	 53.272 	 112.877 	 
H 	 -42.091 	 52.8401 	 111.297 	 
C 	 -41.6496 	 54.9233 	 111.568 	 
H 	 -40.8538 	 54.9897 	 110.793 	 
H 	 -41.5415 	 55.5866 	 112.433 	 
H 	 -42.6442 	 55.2411 	 111.181 	 
H 	 -40.1624 	 53.1253 	 118.981 	 
H 	 -40.1467 	 48.3903 	 112.129 	 
