34

S 	 -56.2549 	 26.9502 	 97.9272 	 
C 	 -55.0998 	 28.2813 	 97.9504 	 
C 	 -53.8868 	 27.9113 	 97.3716 	 
C 	 -53.9659 	 26.6916 	 96.6435 	 
C 	 -55.1813 	 26.0787 	 96.8433 	 
H 	 -53.2388 	 26.0916 	 96.1537 	 
C 	 -52.5385 	 28.5737 	 97.5302 	 
H 	 -52.3952 	 28.829 	 96.557 	 
H 	 -51.8893 	 27.7526 	 97.8192 	 
C 	 -52.3927 	 29.8346 	 98.3956 	 
H 	 -53.0037 	 30.5862 	 98.0588 	 
H 	 -52.614 	 29.5682 	 99.3923 	 
C 	 -50.9308 	 30.2499 	 98.466 	 
H 	 -50.7309 	 31.1899 	 99.0156 	 
H 	 -50.302 	 29.4164 	 98.8341 	 
H 	 -50.5093 	 30.4741 	 97.4292 	 
S 	 -55.9935 	 23.5098 	 97.7303 	 
C 	 -56.0435 	 22.1795 	 96.567 	 
C 	 -55.9643 	 22.7024 	 95.2646 	 
C 	 -55.6523 	 24.1496 	 95.2444 	 
C 	 -55.5687 	 24.74 	 96.5335 	 
H 	 -56.1331 	 22.1721 	 94.2954 	 
C 	 -55.3798 	 24.9115 	 93.9487 	 
H 	 -54.503 	 24.5007 	 93.4696 	 
H 	 -55.0184 	 25.8927 	 94.1192 	 
C 	 -56.606 	 25.1977 	 93.0627 	 
H 	 -57.2093 	 26.0224 	 93.5816 	 
H 	 -57.3235 	 24.3286 	 93.1829 	 
C 	 -56.3174 	 25.4868 	 91.5582 	 
H 	 -55.7579 	 26.4399 	 91.4693 	 
H 	 -57.231 	 25.4289 	 90.981 	 
H 	 -55.5574 	 24.7077 	 91.2329 	 
H 	 -55.179 	 29.1356 	 98.6305 	 
H 	 -56.2818 	 21.1987 	 96.8879 	 
