34

S 	 32.5187 	 12.2305 	 69.9383 	 
C 	 31.07 	 12.9541 	 70.6949 	 
C 	 31.4302 	 14.1003 	 71.4443 	 
C 	 32.8575 	 14.2124 	 71.5523 	 
C 	 33.561 	 13.3159 	 70.7849 	 
H 	 33.4105 	 14.938 	 72.123 	 
C 	 30.4868 	 15.0268 	 72.2438 	 
H 	 30.6676 	 14.7852 	 73.3431 	 
H 	 29.4543 	 14.7982 	 71.9608 	 
C 	 30.764 	 16.5538 	 72.2096 	 
H 	 31.7511 	 16.8356 	 72.5755 	 
H 	 30.7536 	 16.8787 	 71.1944 	 
C 	 29.7543 	 17.3638 	 72.95 	 
H 	 29.6842 	 17.0138 	 73.9537 	 
H 	 30.117 	 18.3949 	 72.9578 	 
H 	 28.6894 	 17.4443 	 72.6294 	 
S 	 35.5346 	 14.7714 	 69.5129 	 
C 	 37.1973 	 14.3172 	 69.6373 	 
C 	 37.2438 	 13.1753 	 70.391 	 
C 	 36.0383 	 12.5076 	 70.7015 	 
C 	 34.9986 	 13.4068 	 70.5617 	 
H 	 38.2767 	 12.8565 	 70.5832 	 
C 	 36.0619 	 11.1898 	 71.3963 	 
H 	 35.2916 	 11.1984 	 72.1875 	 
H 	 37.017 	 11.1109 	 71.9737 	 
C 	 36.1036 	 9.93401 	 70.4046 	 
H 	 37.0656 	 10.1529 	 69.824 	 
H 	 35.2707 	 10.0381 	 69.6808 	 
C 	 36.22 	 8.47423 	 71.0147 	 
H 	 35.324 	 8.09225 	 71.6444 	 
H 	 37.0169 	 8.35002 	 71.7551 	 
H 	 36.3359 	 7.83676 	 70.172 	 
H 	 30.0758 	 12.6619 	 70.613 	 
H 	 38.0884 	 14.8602 	 69.5736 	 
