34

S 	 -15.4454 	 31.9821 	 38.1934 	 
C 	 -15.8195 	 33.163 	 39.4135 	 
C 	 -15.2521 	 34.3716 	 39.1158 	 
C 	 -14.7855 	 34.4559 	 37.7531 	 
C 	 -14.7593 	 33.1935 	 37.1152 	 
H 	 -14.2677 	 35.3275 	 37.3777 	 
C 	 -15.3324 	 35.6022 	 39.9499 	 
H 	 -14.3443 	 36.0583 	 39.8099 	 
H 	 -15.4546 	 35.3635 	 40.9869 	 
C 	 -16.4816 	 36.5721 	 39.6445 	 
H 	 -17.379 	 35.9717 	 39.6833 	 
H 	 -16.4519 	 37.335 	 40.4697 	 
C 	 -16.322 	 37.2656 	 38.3005 	 
H 	 -16.3182 	 36.5661 	 37.4687 	 
H 	 -17.2826 	 37.8325 	 38.1591 	 
H 	 -15.488 	 38.0208 	 38.1698 	 
S 	 -12.9451 	 31.5992 	 35.7439 	 
C 	 -12.7744 	 31.6698 	 33.9576 	 
C 	 -13.6211 	 32.6685 	 33.524 	 
C 	 -14.424 	 33.2827 	 34.5281 	 
C 	 -14.1991 	 32.852 	 35.8049 	 
H 	 -13.6429 	 32.7726 	 32.4225 	 
C 	 -15.4278 	 34.3449 	 34.1763 	 
H 	 -16.1163 	 34.4307 	 35.0376 	 
H 	 -15.9773 	 33.8702 	 33.3557 	 
C 	 -14.8754 	 35.7554 	 33.7704 	 
H 	 -14.3096 	 35.5186 	 32.8779 	 
H 	 -14.1875 	 36.0683 	 34.6173 	 
C 	 -15.8528 	 36.8488 	 33.3865 	 
H 	 -16.5676 	 37.1019 	 34.1571 	 
H 	 -16.439 	 36.5325 	 32.5171 	 
H 	 -15.3018 	 37.7967 	 33.2138 	 
H 	 -16.2485 	 32.9054 	 40.3973 	 
H 	 -12.0886 	 31.1502 	 33.3812 	 
