34

S 	 10.8823 	 22.2569 	 43.6499 	 
C 	 11.214 	 20.7288 	 44.502 	 
C 	 12.4295 	 20.8373 	 45.1493 	 
C 	 13.0827 	 22.1279 	 44.9421 	 
C 	 12.4612 	 22.9225 	 44.0034 	 
H 	 14.0687 	 22.4181 	 45.2813 	 
C 	 12.9162 	 19.609 	 45.9997 	 
H 	 13.7563 	 19.1089 	 45.4899 	 
H 	 12.2147 	 18.7501 	 45.9774 	 
C 	 13.1557 	 19.81 	 47.5017 	 
H 	 12.2186 	 19.9318 	 47.9804 	 
H 	 13.5142 	 18.8817 	 47.9298 	 
C 	 14.2861 	 20.744 	 47.8851 	 
H 	 15.1327 	 20.692 	 47.1649 	 
H 	 13.8642 	 21.8003 	 47.8907 	 
H 	 14.7007 	 20.4547 	 48.8729 	 
S 	 13.3118 	 25.4881 	 44.6742 	 
C 	 13.8268 	 26.4518 	 43.3262 	 
C 	 13.5683 	 25.871 	 42.1194 	 
C 	 13.0672 	 24.5714 	 42.2328 	 
C 	 12.9109 	 24.2365 	 43.5349 	 
H 	 13.8159 	 26.3562 	 41.1308 	 
C 	 12.8506 	 23.6734 	 41.0491 	 
H 	 12.603 	 22.6343 	 41.3791 	 
H 	 13.767 	 23.6609 	 40.5126 	 
C 	 11.7158 	 24.0406 	 40.1153 	 
H 	 11.791 	 25.0169 	 39.6184 	 
H 	 10.8687 	 24.1302 	 40.8736 	 
C 	 11.2835 	 22.855 	 39.204 	 
H 	 11.5958 	 23.0649 	 38.1574 	 
H 	 10.2041 	 22.8153 	 39.0804 	 
H 	 11.5902 	 21.9351 	 39.6487 	 
H 	 10.6916 	 19.813 	 44.5229 	 
H 	 14.4637 	 27.2971 	 43.3597 	 
