34

S 	 -6.41858 	 9.44026 	 84.4483 	 
C 	 -6.36467 	 8.15862 	 85.6502 	 
C 	 -7.58912 	 7.60936 	 85.811 	 
C 	 -8.63202 	 8.17116 	 84.99 	 
C 	 -8.14003 	 9.10475 	 84.1283 	 
H 	 -9.70428 	 7.93475 	 84.9735 	 
C 	 -7.96212 	 6.43489 	 86.7852 	 
H 	 -8.97584 	 6.64849 	 87.1471 	 
H 	 -7.34984 	 6.49226 	 87.7422 	 
C 	 -7.79064 	 5.04333 	 86.262 	 
H 	 -8.4984 	 4.78859 	 85.4064 	 
H 	 -6.78819 	 5.05959 	 85.7108 	 
C 	 -7.83594 	 3.93586 	 87.3127 	 
H 	 -7.95331 	 2.87469 	 86.9841 	 
H 	 -6.89185 	 3.86699 	 87.8831 	 
H 	 -8.64912 	 4.22673 	 87.9606 	 
S 	 -9.2939 	 11.5107 	 83.3607 	 
C 	 -10.8558 	 11.5675 	 82.4892 	 
C 	 -11.0632 	 10.2943 	 82.1074 	 
C 	 -10.0462 	 9.30383 	 82.4352 	 
C 	 -9.0821 	 9.83319 	 83.2512 	 
H 	 -11.9074 	 10.1082 	 81.5097 	 
C 	 -10.1227 	 7.85076 	 82.0096 	 
H 	 -10.9813 	 7.39001 	 82.4256 	 
H 	 -9.27172 	 7.34918 	 82.5109 	 
C 	 -10.152 	 7.48627 	 80.5096 	 
H 	 -10.8972 	 7.99401 	 79.9371 	 
H 	 -10.3432 	 6.43605 	 80.3854 	 
C 	 -8.90055 	 7.67101 	 79.7826 	 
H 	 -9.10983 	 7.29991 	 78.7866 	 
H 	 -7.96402 	 7.20852 	 80.1397 	 
H 	 -8.77236 	 8.71488 	 79.6888 	 
H 	 -5.55527 	 7.9542 	 86.3086 	 
H 	 -11.385 	 12.4755 	 82.295 	 
