34

S 	 -13.5413 	 39.5664 	 31.9062 	 
C 	 -14.6629 	 39.5116 	 33.2423 	 
C 	 -13.9537 	 39.2369 	 34.4205 	 
C 	 -12.5666 	 39.2324 	 34.3702 	 
C 	 -12.2157 	 39.4697 	 33.0293 	 
H 	 -11.8833 	 39.1885 	 35.1577 	 
C 	 -14.7277 	 38.9772 	 35.7356 	 
H 	 -15.6191 	 39.4891 	 35.6582 	 
H 	 -14.2899 	 39.4562 	 36.596 	 
C 	 -15.2562 	 37.5542 	 36.027 	 
H 	 -16.1785 	 37.3886 	 36.6665 	 
H 	 -15.6834 	 37.165 	 35.0285 	 
C 	 -14.1687 	 36.6002 	 36.4794 	 
H 	 -13.2844 	 36.549 	 35.8531 	 
H 	 -13.7696 	 36.786 	 37.4996 	 
H 	 -14.6269 	 35.6448 	 36.5519 	 
S 	 -10.0461 	 40.9485 	 32.0265 	 
C 	 -8.63584 	 40.045 	 31.5544 	 
C 	 -8.82505 	 38.656 	 31.7671 	 
C 	 -9.99972 	 38.3484 	 32.4812 	 
C 	 -10.8775 	 39.4838 	 32.5529 	 
H 	 -8.03507 	 37.8644 	 31.481 	 
C 	 -10.4522 	 36.8983 	 32.7391 	 
H 	 -9.85366 	 36.3196 	 31.9946 	 
H 	 -11.5163 	 36.8629 	 32.4599 	 
C 	 -10.0887 	 36.3427 	 34.1872 	 
H 	 -10.7751 	 35.5141 	 34.3301 	 
H 	 -10.3346 	 37.1058 	 34.8728 	 
C 	 -8.70215 	 35.8571 	 34.3735 	 
H 	 -8.60072 	 34.8575 	 34.0354 	 
H 	 -8.40009 	 35.9473 	 35.4805 	 
H 	 -8.02437 	 36.4799 	 33.7925 	 
H 	 -15.6938 	 39.5653 	 33.2207 	 
H 	 -7.69192 	 40.4464 	 31.2846 	 
