34

S 	 -30.4491 	 65.977 	 102.132 	 
C 	 -30.2907 	 67.6549 	 102.495 	 
C 	 -29.2712 	 68.3146 	 101.833 	 
C 	 -28.5253 	 67.3625 	 101.11 	 
C 	 -28.9153 	 66.059 	 101.275 	 
H 	 -27.7108 	 67.5097 	 100.373 	 
C 	 -28.9139 	 69.7515 	 102.016 	 
H 	 -29.5421 	 70.1844 	 102.791 	 
H 	 -29.0726 	 70.2076 	 101.058 	 
C 	 -27.4713 	 70.0114 	 102.503 	 
H 	 -26.6841 	 69.7512 	 101.742 	 
H 	 -27.3979 	 71.0993 	 102.668 	 
C 	 -27.0652 	 69.2584 	 103.806 	 
H 	 -27.7917 	 69.3973 	 104.631 	 
H 	 -27.2709 	 68.1861 	 103.634 	 
H 	 -26.0993 	 69.4402 	 104.193 	 
S 	 -29.1546 	 64.2692 	 99.1824 	 
C 	 -28.0065 	 62.9466 	 99.0482 	 
C 	 -26.9337 	 63.0951 	 99.8975 	 
C 	 -27.1882 	 64.1613 	 100.856 	 
C 	 -28.3781 	 64.8642 	 100.622 	 
H 	 -26.0587 	 62.4093 	 99.9595 	 
C 	 -26.152 	 64.5589 	 101.811 	 
H 	 -26.3049 	 65.578 	 102.094 	 
H 	 -25.1763 	 64.38 	 101.387 	 
C 	 -25.9299 	 63.7078 	 102.961 	 
H 	 -24.8903 	 63.872 	 103.422 	 
H 	 -25.7179 	 62.6759 	 102.641 	 
C 	 -27.0241 	 63.6828 	 103.983 	 
H 	 -28.0098 	 63.3874 	 103.436 	 
H 	 -27.1342 	 64.5163 	 104.542 	 
H 	 -26.7584 	 62.8047 	 104.57 	 
H 	 -30.924 	 68.2137 	 103.147 	 
H 	 -28.0156 	 62.309 	 98.2101 	 
