34

S 	 -25.5698 	 -5.81386 	 87.6483 	 
C 	 -27.2376 	 -6.27441 	 87.664 	 
C 	 -28.0479 	 -5.15395 	 87.864 	 
C 	 -27.3009 	 -3.93789 	 88.0287 	 
C 	 -25.9405 	 -4.11908 	 87.9755 	 
H 	 -27.7149 	 -2.93691 	 88.0208 	 
C 	 -29.5335 	 -5.18974 	 87.8545 	 
H 	 -29.8842 	 -4.50993 	 88.6734 	 
H 	 -29.8973 	 -6.24486 	 88.1759 	 
C 	 -30.2209 	 -4.85017 	 86.5586 	 
H 	 -29.9286 	 -5.51358 	 85.7709 	 
H 	 -31.2773 	 -5.10762 	 86.7204 	 
C 	 -30.096 	 -3.3411 	 86.0644 	 
H 	 -29.0725 	 -2.96932 	 86.2064 	 
H 	 -30.5478 	 -3.24633 	 85.0972 	 
H 	 -30.7493 	 -2.80195 	 86.7682 	 
S 	 -23.4993 	 -3.58289 	 88.992 	 
C 	 -22.6217 	 -2.1258 	 88.4952 	 
C 	 -23.374 	 -1.433 	 87.5526 	 
C 	 -24.6161 	 -1.97527 	 87.2137 	 
C 	 -24.8585 	 -3.14648 	 87.9608 	 
H 	 -22.8498 	 -0.59449 	 87.1465 	 
C 	 -25.4596 	 -1.53768 	 86.0507 	 
H 	 -26.2046 	 -2.33938 	 85.8546 	 
H 	 -24.9063 	 -1.4468 	 85.1176 	 
C 	 -26.267 	 -0.289633 	 86.2384 	 
H 	 -25.5493 	 0.506747 	 86.0732 	 
H 	 -26.5429 	 -0.0429803 	 87.3362 	 
C 	 -27.515 	 -0.295281 	 85.3699 	 
H 	 -28.1976 	 -0.966828 	 85.8445 	 
H 	 -27.254 	 -0.582697 	 84.3613 	 
H 	 -27.9216 	 0.766222 	 85.2515 	 
H 	 -27.6491 	 -7.25456 	 87.331 	 
H 	 -21.5934 	 -1.93004 	 88.7396 	 
