34

S 	 -7.52646 	 14.9647 	 82.2633 	 
C 	 -7.1387 	 13.5109 	 83.0987 	 
C 	 -6.08447 	 12.9081 	 82.4452 	 
C 	 -5.49909 	 13.7253 	 81.4413 	 
C 	 -6.09146 	 14.9478 	 81.1946 	 
H 	 -4.57933 	 13.5928 	 80.9332 	 
C 	 -5.40959 	 11.5468 	 82.8031 	 
H 	 -5.33652 	 11.5134 	 83.9289 	 
H 	 -4.37139 	 11.4364 	 82.5267 	 
C 	 -6.02296 	 10.2243 	 82.3301 	 
H 	 -5.61227 	 9.29497 	 82.6351 	 
H 	 -7.05805 	 10.3131 	 82.7508 	 
C 	 -6.09456 	 10.1288 	 80.8284 	 
H 	 -5.10715 	 10.2089 	 80.332 	 
H 	 -6.54274 	 9.17434 	 80.494 	 
H 	 -6.65654 	 10.8633 	 80.3399 	 
S 	 -6.97032 	 16.7601 	 79.3948 	 
C 	 -5.91157 	 17.6596 	 78.3263 	 
C 	 -4.5771 	 17.2191 	 78.5399 	 
C 	 -4.52418 	 16.245 	 79.5798 	 
C 	 -5.67944 	 15.8764 	 80.1554 	 
H 	 -3.80139 	 17.5459 	 77.8803 	 
C 	 -3.09144 	 15.7984 	 79.8977 	 
H 	 -3.02275 	 15.119 	 80.7755 	 
H 	 -2.55915 	 16.6949 	 80.2684 	 
C 	 -2.4142 	 15.1042 	 78.6393 	 
H 	 -2.24664 	 15.8361 	 77.8076 	 
H 	 -2.94245 	 14.2643 	 78.2298 	 
C 	 -0.9866 	 14.5624 	 78.9656 	 
H 	 -0.991139 	 13.9178 	 79.8555 	 
H 	 -0.447001 	 15.4714 	 79.1749 	 
H 	 -0.497257 	 14.0315 	 78.1534 	 
H 	 -7.69811 	 13.0225 	 83.9055 	 
H 	 -6.27282 	 18.3001 	 77.5683 	 
