34

S 	 -42.9866 	 35.2005 	 82.3803 	 
C 	 -42.8802 	 36.6414 	 81.4408 	 
C 	 -41.6969 	 36.6104 	 80.6732 	 
C 	 -41.0133 	 35.3862 	 80.7802 	 
C 	 -41.5642 	 34.5625 	 81.7148 	 
H 	 -40.122 	 35.0614 	 80.3202 	 
C 	 -41.4021 	 37.4804 	 79.4486 	 
H 	 -40.4708 	 37.9192 	 79.6411 	 
H 	 -42.0892 	 38.2688 	 79.5368 	 
C 	 -41.6104 	 37.0335 	 78.0097 	 
H 	 -40.9599 	 36.2502 	 77.7439 	 
H 	 -42.6111 	 36.6536 	 78.0279 	 
C 	 -41.466 	 38.1656 	 77.0454 	 
H 	 -40.4183 	 38.417 	 76.9722 	 
H 	 -41.8249 	 37.9268 	 76.0813 	 
H 	 -42.007 	 39.0349 	 77.429 	 
S 	 -39.7755 	 33.0949 	 83.1346 	 
C 	 -39.7322 	 31.3456 	 83.0178 	 
C 	 -40.7052 	 30.8512 	 82.2036 	 
C 	 -41.4641 	 31.9358 	 81.6266 	 
C 	 -41.0879 	 33.2117 	 81.9577 	 
H 	 -40.7908 	 29.8679 	 81.9575 	 
C 	 -42.5452 	 31.5419 	 80.6007 	 
H 	 -43.0306 	 32.2985 	 80.2136 	 
H 	 -43.3665 	 31.0046 	 81.1146 	 
C 	 -42.0691 	 30.7605 	 79.3576 	 
H 	 -42.8879 	 30.5136 	 78.6696 	 
H 	 -41.786 	 29.7905 	 79.6874 	 
C 	 -41.0118 	 31.4507 	 78.5574 	 
H 	 -40.0354 	 31.4738 	 79.063 	 
H 	 -41.3285 	 32.4579 	 78.4311 	 
H 	 -40.9028 	 30.9116 	 77.5996 	 
H 	 -43.6079 	 37.3914 	 81.5008 	 
H 	 -39.2317 	 30.6718 	 83.6961 	 
