34

S 	 -3.09471 	 48.9802 	 50.2934 	 
C 	 -2.86269 	 48.2975 	 51.8644 	 
C 	 -3.32974 	 49.1118 	 52.9056 	 
C 	 -3.8673 	 50.3584 	 52.4302 	 
C 	 -3.76073 	 50.3887 	 51.0073 	 
H 	 -4.48076 	 51.0441 	 52.9798 	 
C 	 -3.14176 	 48.7418 	 54.3474 	 
H 	 -2.32998 	 48.0092 	 54.2847 	 
H 	 -4.02811 	 48.2575 	 54.6733 	 
C 	 -2.71544 	 49.9268 	 55.2798 	 
H 	 -1.73518 	 50.2143 	 54.9062 	 
H 	 -3.35697 	 50.7763 	 55.0413 	 
C 	 -2.663 	 49.6001 	 56.7832 	 
H 	 -1.79504 	 48.9315 	 57.0318 	 
H 	 -2.48795 	 50.4951 	 57.4091 	 
H 	 -3.60587 	 49.2107 	 57.2152 	 
S 	 -3.21928 	 51.9979 	 48.9034 	 
C 	 -4.35595 	 53.2661 	 48.5052 	 
C 	 -5.54827 	 53.2223 	 49.2715 	 
C 	 -5.50761 	 52.1396 	 50.2238 	 
C 	 -4.31787 	 51.4408 	 50.1151 	 
H 	 -6.29875 	 53.9614 	 49.0268 	 
C 	 -6.59943 	 51.9154 	 51.2439 	 
H 	 -6.22667 	 52.2928 	 52.1534 	 
H 	 -6.70299 	 50.9047 	 51.4249 	 
C 	 -7.90635 	 52.5614 	 50.9442 	 
H 	 -8.66605 	 51.9678 	 51.3939 	 
H 	 -8.13635 	 52.5404 	 49.8552 	 
C 	 -8.2341 	 54.0197 	 51.4547 	 
H 	 -9.25362 	 54.3198 	 51.4796 	 
H 	 -7.75681 	 54.7958 	 50.9081 	 
H 	 -7.87752 	 54.1889 	 52.4814 	 
H 	 -2.32462 	 47.3771 	 52.1503 	 
H 	 -4.32502 	 54.034 	 47.6441 	 
