34

S 	 40.756 	 12.4548 	 49.6234 	 
C 	 40.5984 	 14.1155 	 50.0519 	 
C 	 41.7898 	 14.7663 	 50.3138 	 
C 	 42.8797 	 13.8147 	 50.2253 	 
C 	 42.5192 	 12.5337 	 49.8279 	 
H 	 43.9032 	 14.064 	 50.5497 	 
C 	 41.9517 	 16.2062 	 50.7817 	 
H 	 41.3418 	 16.7516 	 50.1699 	 
H 	 43.0247 	 16.5712 	 50.8312 	 
C 	 41.274 	 16.4328 	 52.1122 	 
H 	 40.2029 	 16.0996 	 52.1247 	 
H 	 41.7812 	 15.6924 	 52.7757 	 
C 	 41.3998 	 17.8086 	 52.751 	 
H 	 42.442 	 18.1792 	 52.7549 	 
H 	 40.6972 	 18.543 	 52.3403 	 
H 	 41.0865 	 17.5806 	 53.802 	 
S 	 43.4356 	 10.3523 	 51.042 	 
C 	 44.3957 	 9.14963 	 50.2183 	 
C 	 44.7631 	 9.6326 	 48.9919 	 
C 	 44.2637 	 10.9415 	 48.6921 	 
C 	 43.384 	 11.3897 	 49.6841 	 
H 	 45.477 	 9.1359 	 48.3234 	 
C 	 44.7735 	 11.7694 	 47.4798 	 
H 	 43.8674 	 12.3979 	 47.2773 	 
H 	 44.9699 	 11.0675 	 46.692 	 
C 	 46.0027 	 12.6576 	 47.6436 	 
H 	 45.935 	 13.3486 	 48.4704 	 
H 	 46.2566 	 13.3178 	 46.773 	 
C 	 47.2756 	 11.8632 	 47.9213 	 
H 	 47.269 	 11.2873 	 48.8464 	 
H 	 48.1102 	 12.5026 	 47.9355 	 
H 	 47.5331 	 11.1421 	 47.1875 	 
H 	 39.6028 	 14.6092 	 50.0904 	 
H 	 44.6741 	 8.1562 	 50.5939 	 
