34

S 	 55.4859 	 23.7366 	 44.2934 	 
C 	 57.0613 	 24.0147 	 43.567 	 
C 	 57.9165 	 22.889 	 43.6525 	 
C 	 57.2048 	 21.7436 	 44.1406 	 
C 	 55.9594 	 22.0403 	 44.5162 	 
H 	 57.4976 	 20.697 	 44.2319 	 
C 	 59.3483 	 22.8298 	 43.1905 	 
H 	 59.4621 	 23.512 	 42.3178 	 
H 	 59.632 	 21.8386 	 42.6609 	 
C 	 60.3621 	 23.2138 	 44.2241 	 
H 	 61.4045 	 23.157 	 43.8157 	 
H 	 60.4067 	 24.2715 	 44.4876 	 
C 	 60.4663 	 22.3231 	 45.4421 	 
H 	 59.5677 	 22.2788 	 46.0056 	 
H 	 60.6616 	 21.3302 	 45.1626 	 
H 	 61.1825 	 22.6413 	 46.1704 	 
S 	 55.1736 	 20.158 	 46.5048 	 
C 	 53.876 	 19.1233 	 46.1333 	 
C 	 53.2356 	 19.4477 	 44.9214 	 
C 	 53.9785 	 20.4885 	 44.1991 	 
C 	 54.9794 	 21.041 	 44.9536 	 
H 	 52.4406 	 18.8027 	 44.5099 	 
C 	 53.6418 	 20.8251 	 42.7073 	 
H 	 54.5923 	 20.9061 	 42.1434 	 
H 	 53.3442 	 21.8776 	 42.7627 	 
C 	 52.598 	 20.1498 	 41.8824 	 
H 	 51.6317 	 20.6533 	 42.0934 	 
H 	 52.5667 	 19.0595 	 42.0384 	 
C 	 52.8543 	 20.5851 	 40.3944 	 
H 	 52.1077 	 20.1429 	 39.7418 	 
H 	 53.801 	 20.3235 	 40.07 	 
H 	 52.8061 	 21.6894 	 40.3309 	 
H 	 57.4202 	 24.9251 	 43.1819 	 
H 	 53.462 	 18.3953 	 46.9355 	 
