34

S 	 -15.195 	 35.1613 	 38.6628 	 
C 	 -14.7376 	 36.6981 	 39.2722 	 
C 	 -14.1775 	 37.4977 	 38.2826 	 
C 	 -14.0689 	 36.7993 	 37.0443 	 
C 	 -14.6558 	 35.5644 	 37.0273 	 
H 	 -13.5875 	 37.2082 	 36.1438 	 
C 	 -13.4734 	 38.8439 	 38.4548 	 
H 	 -13.4331 	 39.4105 	 37.5047 	 
H 	 -12.4318 	 38.6449 	 38.6753 	 
C 	 -14.1066 	 39.808 	 39.4803 	 
H 	 -13.9738 	 39.2889 	 40.4361 	 
H 	 -13.4854 	 40.7148 	 39.391 	 
C 	 -15.5735 	 40.2301 	 39.2112 	 
H 	 -15.6453 	 40.8372 	 38.2342 	 
H 	 -16.1331 	 39.3288 	 39.2949 	 
H 	 -15.9472 	 40.787 	 40.0626 	 
S 	 -13.6165 	 33.0853 	 36.5204 	 
C 	 -13.6652 	 32.4668 	 34.8497 	 
C 	 -14.3972 	 33.3224 	 34.1055 	 
C 	 -14.9407 	 34.4512 	 34.77 	 
C 	 -14.4551 	 34.5119 	 36.0849 	 
H 	 -14.4139 	 33.1335 	 33.0133 	 
C 	 -15.7797 	 35.5295 	 34.0999 	 
H 	 -15.3354 	 36.4764 	 34.2838 	 
H 	 -16.7135 	 35.6599 	 34.6796 	 
C 	 -16.1216 	 35.3229 	 32.6624 	 
H 	 -16.6941 	 34.4471 	 32.6025 	 
H 	 -15.1756 	 35.0251 	 32.0323 	 
C 	 -17.0235 	 36.3907 	 32.1084 	 
H 	 -16.3947 	 37.29 	 32.3759 	 
H 	 -17.9198 	 36.5315 	 32.7339 	 
H 	 -17.3871 	 36.4304 	 31.0865 	 
H 	 -14.8013 	 37.0151 	 40.2886 	 
H 	 -13.237 	 31.5272 	 34.5592 	 
