34

S 	 -32.9794 	 59.5383 	 112.424 	 
C 	 -34.4954 	 60.2586 	 112.17 	 
C 	 -35.5121 	 59.5747 	 112.839 	 
C 	 -35.0757 	 58.366 	 113.383 	 
C 	 -33.7398 	 58.1932 	 113.264 	 
H 	 -35.76 	 57.6379 	 113.864 	 
C 	 -36.9747 	 59.932 	 113.038 	 
H 	 -37.0661 	 60.7023 	 113.783 	 
H 	 -37.5968 	 59.102 	 113.427 	 
C 	 -37.6902 	 60.4028 	 111.752 	 
H 	 -37.2475 	 61.4031 	 111.452 	 
H 	 -37.3746 	 59.667 	 111.004 	 
C 	 -39.1595 	 60.2877 	 111.814 	 
H 	 -39.4924 	 59.2696 	 111.903 	 
H 	 -39.5627 	 60.7572 	 112.704 	 
H 	 -39.6343 	 60.7438 	 110.941 	 
S 	 -33.682 	 55.4421 	 113.453 	 
C 	 -32.2292 	 54.6682 	 114 	 
C 	 -31.231 	 55.5971 	 114.346 	 
C 	 -31.7195 	 56.952 	 114.216 	 
C 	 -32.974 	 57.0413 	 113.705 	 
H 	 -30.2411 	 55.3372 	 114.702 	 
C 	 -30.8246 	 58.0209 	 114.812 	 
H 	 -31.1505 	 59.0051 	 114.469 	 
H 	 -29.7846 	 57.8408 	 114.44 	 
C 	 -30.7774 	 58.2042 	 116.356 	 
H 	 -30.3946 	 57.3313 	 116.871 	 
H 	 -31.8397 	 58.2687 	 116.7 	 
C 	 -29.9451 	 59.465 	 116.665 	 
H 	 -30.516 	 60.2959 	 116.26 	 
H 	 -28.9738 	 59.3499 	 116.267 	 
H 	 -29.9996 	 59.5018 	 117.77 	 
H 	 -34.6261 	 61.1367 	 111.517 	 
H 	 -32.0656 	 53.6742 	 114.027 	 
