34

S 	 0.736935 	 -4.7006 	 89.9295 	 
C 	 2.16347 	 -5.48584 	 89.3363 	 
C 	 1.90662 	 -6.11801 	 88.1004 	 
C 	 0.539928 	 -5.91458 	 87.7071 	 
C 	 -0.173268 	 -4.94923 	 88.4296 	 
H 	 0.112276 	 -6.22123 	 86.7719 	 
C 	 2.87283 	 -7.13289 	 87.4646 	 
H 	 3.74375 	 -6.62638 	 87.3471 	 
H 	 2.43243 	 -7.31991 	 86.4514 	 
C 	 3.15836 	 -8.4125 	 88.3582 	 
H 	 4.12991 	 -8.83143 	 88.1996 	 
H 	 3.33666 	 -8.01362 	 89.3261 	 
C 	 2.06607 	 -9.52829 	 88.326 	 
H 	 1.02207 	 -9.09203 	 88.2495 	 
H 	 2.19713 	 -10.1047 	 87.4055 	 
H 	 2.16488 	 -10.3546 	 89.0889 	 
S 	 -1.88121 	 -4.00094 	 86.4907 	 
C 	 -3.47983 	 -3.65824 	 86.9177 	 
C 	 -3.7834 	 -3.80831 	 88.2846 	 
C 	 -2.69665 	 -4.36385 	 88.9831 	 
C 	 -1.52365 	 -4.51645 	 88.1499 	 
H 	 -4.78868 	 -3.70144 	 88.741 	 
C 	 -2.84091 	 -4.55914 	 90.5108 	 
H 	 -3.55082 	 -3.77748 	 91.0229 	 
H 	 -1.85963 	 -4.1 	 90.9288 	 
C 	 -3.14649 	 -5.93048 	 91.0347 	 
H 	 -3.08468 	 -5.87059 	 92.1047 	 
H 	 -2.47189 	 -6.67002 	 90.7285 	 
C 	 -4.55673 	 -6.49361 	 90.6487 	 
H 	 -4.80379 	 -6.5715 	 89.594 	 
H 	 -5.2323 	 -5.86959 	 91.1111 	 
H 	 -4.74141 	 -7.40996 	 91.1559 	 
H 	 3.02727 	 -5.58051 	 89.9344 	 
H 	 -4.22807 	 -3.2115 	 86.2637 	 
