34

S 	 -2.89134 	 -11.7296 	 84.5816 	 
C 	 -1.98875 	 -12.5249 	 85.83 	 
C 	 -2.83502 	 -13.4629 	 86.4962 	 
C 	 -4.13753 	 -13.4242 	 85.9644 	 
C 	 -4.30279 	 -12.6895 	 84.8326 	 
H 	 -5.00045 	 -13.9259 	 86.3976 	 
C 	 -2.4701 	 -14.3312 	 87.7039 	 
H 	 -1.38878 	 -14.4669 	 87.6505 	 
H 	 -3.0007 	 -15.3489 	 87.4958 	 
C 	 -3.10824 	 -13.8836 	 89.0483 	 
H 	 -2.73352 	 -12.886 	 89.2614 	 
H 	 -4.20189 	 -13.7414 	 88.9793 	 
C 	 -2.74405 	 -14.8723 	 90.2554 	 
H 	 -3.23783 	 -14.3812 	 91.1045 	 
H 	 -3.14198 	 -15.9143 	 90.1181 	 
H 	 -1.69112 	 -14.9012 	 90.4256 	 
S 	 -6.03455 	 -10.8063 	 83.8715 	 
C 	 -7.52655 	 -11.3377 	 83.0976 	 
C 	 -7.67869 	 -12.728 	 83.1954 	 
C 	 -6.5432 	 -13.3367 	 83.783 	 
C 	 -5.51505 	 -12.444 	 84.096 	 
H 	 -8.47773 	 -13.312 	 82.676 	 
C 	 -6.46963 	 -14.8649 	 83.8999 	 
H 	 -7.43744 	 -15.328 	 83.8316 	 
H 	 -6.12648 	 -15.0444 	 84.9382 	 
C 	 -5.47795 	 -15.4853 	 82.8063 	 
H 	 -4.52157 	 -14.9646 	 82.7333 	 
H 	 -5.7721 	 -15.1634 	 81.8248 	 
C 	 -5.33163 	 -16.9552 	 82.8334 	 
H 	 -6.28453 	 -17.4943 	 82.8882 	 
H 	 -4.80973 	 -17.2665 	 83.7297 	 
H 	 -4.79029 	 -17.3677 	 81.9933 	 
H 	 -0.968657 	 -12.4509 	 85.9755 	 
H 	 -8.24907 	 -10.6698 	 82.6859 	 
