34

S 	 30.1752 	 17.1718 	 69.3312 	 
C 	 29.751 	 15.8627 	 70.3793 	 
C 	 30.7763 	 14.9043 	 70.3843 	 
C 	 31.874 	 15.2416 	 69.6033 	 
C 	 31.8352 	 16.5032 	 69.0698 	 
H 	 32.7914 	 14.6514 	 69.4804 	 
C 	 30.8886 	 13.6239 	 71.1917 	 
H 	 30.5042 	 13.8585 	 72.1867 	 
H 	 31.8412 	 13.1782 	 71.2808 	 
C 	 29.9217 	 12.4617 	 70.7263 	 
H 	 28.8881 	 12.7866 	 71.0815 	 
H 	 29.7154 	 12.4578 	 69.6467 	 
C 	 30.1984 	 11.0306 	 71.3563 	 
H 	 29.9943 	 10.9511 	 72.5021 	 
H 	 29.5893 	 10.3672 	 70.7298 	 
H 	 31.2149 	 10.7452 	 71.103 	 
S 	 32.4603 	 18.0597 	 66.8838 	 
C 	 34.0243 	 18.6735 	 66.6545 	 
C 	 34.8896 	 18.3146 	 67.6766 	 
C 	 34.2315 	 17.3831 	 68.5496 	 
C 	 32.8552 	 17.2349 	 68.3717 	 
H 	 35.9347 	 18.6423 	 67.7265 	 
C 	 34.9654 	 16.8045 	 69.6785 	 
H 	 34.1749 	 16.429 	 70.2573 	 
H 	 35.5038 	 17.5811 	 70.2488 	 
C 	 35.9483 	 15.7315 	 69.3955 	 
H 	 35.5306 	 14.8975 	 68.876 	 
H 	 36.2505 	 15.3526 	 70.3235 	 
C 	 37.2834 	 16.1771 	 68.7874 	 
H 	 37.765 	 16.8835 	 69.5011 	 
H 	 37.2277 	 16.7067 	 67.8521 	 
H 	 38.0183 	 15.4127 	 68.6059 	 
H 	 28.814 	 15.8044 	 70.9164 	 
H 	 34.2236 	 19.4103 	 65.8782 	 
