34

S 	 -93.6347 	 56.0095 	 128.045 	 
C 	 -92.367 	 55.9158 	 129.28 	 
C 	 -91.0763 	 56.145 	 128.703 	 
C 	 -91.182 	 56.6482 	 127.366 	 
C 	 -92.4927 	 56.6672 	 126.855 	 
H 	 -90.3683 	 57.0305 	 126.693 	 
C 	 -89.6965 	 56.151 	 129.407 	 
H 	 -88.9108 	 55.7194 	 128.83 	 
H 	 -89.8248 	 55.4559 	 130.264 	 
C 	 -89.3532 	 57.5411 	 129.914 	 
H 	 -89.6697 	 58.3217 	 129.211 	 
H 	 -89.8901 	 57.8315 	 130.798 	 
C 	 -87.9519 	 57.786 	 130.195 	 
H 	 -87.4003 	 56.8029 	 130.267 	 
H 	 -87.5199 	 58.2248 	 129.303 	 
H 	 -87.8091 	 58.2997 	 131.134 	 
S 	 -94.2512 	 58.3354 	 125.583 	 
C 	 -94.3622 	 58.33 	 123.86 	 
C 	 -93.3621 	 57.5523 	 123.35 	 
C 	 -92.3987 	 56.9802 	 124.278 	 
C 	 -92.8707 	 57.1892 	 125.557 	 
H 	 -93.288 	 57.321 	 122.249 	 
C 	 -91.2472 	 56.1376 	 123.772 	 
H 	 -91.5797 	 55.6204 	 122.83 	 
H 	 -91.057 	 55.4432 	 124.557 	 
C 	 -89.9257 	 56.8849 	 123.463 	 
H 	 -89.4271 	 57.1558 	 124.323 	 
H 	 -89.986 	 57.7556 	 122.779 	 
C 	 -88.9577 	 55.8645 	 122.811 	 
H 	 -89.3121 	 55.7272 	 121.719 	 
H 	 -88.7437 	 54.9353 	 123.352 	 
H 	 -87.9873 	 56.3545 	 122.585 	 
H 	 -92.4439 	 55.6723 	 130.314 	 
H 	 -95.0841 	 59.0092 	 123.376 	 
