34

S 	 -101.72 	 53.0852 	 118.566 	 
C 	 -102.144 	 53.5649 	 116.927 	 
C 	 -103.358 	 54.2745 	 117.016 	 
C 	 -103.88 	 54.421 	 118.328 	 
C 	 -103.215 	 53.7324 	 119.299 	 
H 	 -104.836 	 54.8988 	 118.658 	 
C 	 -103.978 	 54.9884 	 115.806 	 
H 	 -104.874 	 54.4021 	 115.499 	 
H 	 -103.327 	 54.7335 	 114.98 	 
C 	 -104.038 	 56.5533 	 115.823 	 
H 	 -103.14 	 56.9947 	 116.214 	 
H 	 -104.176 	 56.8199 	 114.778 	 
C 	 -105.313 	 57.006 	 116.566 	 
H 	 -106.132 	 56.2824 	 116.354 	 
H 	 -105.157 	 57.1014 	 117.624 	 
H 	 -105.616 	 57.9953 	 116.262 	 
S 	 -102.296 	 52.7889 	 121.613 	 
C 	 -103.312 	 52.784 	 123.078 	 
C 	 -104.513 	 53.3079 	 122.836 	 
C 	 -104.654 	 53.8357 	 121.549 	 
C 	 -103.515 	 53.569 	 120.714 	 
H 	 -105.259 	 53.4629 	 123.62 	 
C 	 -105.926 	 54.4783 	 121.168 	 
H 	 -106.685 	 54.1486 	 121.727 	 
H 	 -106.223 	 54.1439 	 120.152 	 
C 	 -105.912 	 56.0263 	 121.31 	 
H 	 -104.975 	 56.4114 	 120.897 	 
H 	 -105.988 	 56.3045 	 122.372 	 
C 	 -107.071 	 56.7036 	 120.596 	 
H 	 -107.205 	 57.6085 	 121.056 	 
H 	 -108.026 	 56.1151 	 120.701 	 
H 	 -106.82 	 56.7677 	 119.509 	 
H 	 -101.618 	 53.35 	 115.987 	 
H 	 -103 	 52.4244 	 124.031 	 
