34

S 	 31.5592 	 27.6406 	 51.9455 	 
C 	 31.6221 	 28.8174 	 50.7195 	 
C 	 31.5454 	 30.0992 	 51.195 	 
C 	 31.5952 	 30.0837 	 52.6401 	 
C 	 31.3442 	 28.8543 	 53.1589 	 
H 	 31.6194 	 31.0204 	 53.156 	 
C 	 31.3475 	 31.3664 	 50.4189 	 
H 	 31.2104 	 31.0002 	 49.3413 	 
H 	 32.2242 	 31.9878 	 50.3333 	 
C 	 30.1342 	 32.203 	 50.8952 	 
H 	 29.3295 	 31.4927 	 51.1063 	 
H 	 30.3353 	 32.696 	 51.7985 	 
C 	 29.7917 	 33.2225 	 49.7577 	 
H 	 28.9337 	 33.8157 	 50.1006 	 
H 	 30.667 	 33.9145 	 49.6098 	 
H 	 29.6125 	 32.7397 	 48.8215 	 
S 	 32.2961 	 27.0841 	 55.1289 	 
C 	 31.5636 	 27.1473 	 56.7276 	 
C 	 30.6253 	 28.1274 	 56.8517 	 
C 	 30.4739 	 28.9258 	 55.6645 	 
C 	 31.2454 	 28.4279 	 54.5848 	 
H 	 30.1515 	 28.3115 	 57.835 	 
C 	 29.6436 	 30.1865 	 55.4863 	 
H 	 30.2769 	 31.0266 	 55.2465 	 
H 	 29.3377 	 30.5036 	 56.495 	 
C 	 28.2873 	 30.0479 	 54.696 	 
H 	 27.5245 	 29.7231 	 55.3956 	 
H 	 28.4969 	 29.3228 	 53.8971 	 
C 	 27.7814 	 31.4071 	 54.1854 	 
H 	 28.6176 	 31.9545 	 53.7651 	 
H 	 27.4835 	 32.0559 	 55.0743 	 
H 	 27.0522 	 31.2058 	 53.4034 	 
H 	 31.5982 	 28.4428 	 49.6824 	 
H 	 31.8352 	 26.4697 	 57.5507 	 
