34

S 	 -45.1729 	 24.2185 	 83.693 	 
C 	 -44.7026 	 23.1517 	 82.4703 	 
C 	 -45.2143 	 23.5857 	 81.251 	 
C 	 -45.8292 	 24.8909 	 81.2823 	 
C 	 -45.76 	 25.4428 	 82.5263 	 
H 	 -46.1878 	 25.4054 	 80.4054 	 
C 	 -44.9848 	 22.9018 	 79.8911 	 
H 	 -45.6346 	 23.4333 	 79.1902 	 
H 	 -45.2974 	 21.9493 	 79.9008 	 
C 	 -43.4686 	 22.7954 	 79.389 	 
H 	 -43.281 	 22.5324 	 78.3035 	 
H 	 -42.9906 	 23.7872 	 79.562 	 
C 	 -42.6407 	 21.8007 	 80.1414 	 
H 	 -42.6146 	 21.9967 	 81.2357 	 
H 	 -42.9953 	 20.8011 	 80.0261 	 
H 	 -41.5797 	 21.9067 	 79.8591 	 
S 	 -47.8422 	 26.8842 	 83.8409 	 
C 	 -47.6771 	 28.5819 	 83.9012 	 
C 	 -46.6376 	 29.0584 	 83.1115 	 
C 	 -45.8655 	 28.0248 	 82.4918 	 
C 	 -46.2811 	 26.7251 	 82.9068 	 
H 	 -46.4577 	 30.1171 	 82.9067 	 
C 	 -44.7976 	 28.4459 	 81.4912 	 
H 	 -43.9236 	 27.7974 	 81.6552 	 
H 	 -44.4229 	 29.3868 	 81.7198 	 
C 	 -45.1347 	 28.2683 	 79.9523 	 
H 	 -45.1828 	 27.1611 	 79.8059 	 
H 	 -44.3055 	 28.6417 	 79.4197 	 
C 	 -46.4563 	 28.9759 	 79.6266 	 
H 	 -47.3563 	 28.4407 	 80.0273 	 
H 	 -46.7455 	 28.8733 	 78.5841 	 
H 	 -46.4826 	 30.0582 	 79.8737 	 
H 	 -44.2741 	 22.2031 	 82.7431 	 
H 	 -48.3028 	 29.2146 	 84.4928 	 
