34

S 	 -35.8852 	 71.1991 	 168.326 	 
C 	 -35.2612 	 71.913 	 166.848 	 
C 	 -34.778 	 73.1497 	 167.066 	 
C 	 -34.8495 	 73.5636 	 168.48 	 
C 	 -35.46 	 72.6223 	 169.276 	 
H 	 -34.4629 	 74.4685 	 168.889 	 
C 	 -33.8994 	 73.8442 	 166.051 	 
H 	 -34.3886 	 73.9031 	 165.086 	 
H 	 -33.077 	 73.143 	 165.888 	 
C 	 -33.2885 	 75.2376 	 166.23 	 
H 	 -34.077 	 75.9352 	 166.288 	 
H 	 -32.6634 	 75.203 	 167.142 	 
C 	 -32.5363 	 75.8191 	 165.027 	 
H 	 -32.2315 	 76.8795 	 165.136 	 
H 	 -31.6287 	 75.2296 	 164.882 	 
H 	 -33.0495 	 75.7315 	 164.106 	 
S 	 -35.1837 	 71.2783 	 171.675 	 
C 	 -35.7823 	 72.0042 	 173.122 	 
C 	 -36.4142 	 73.2085 	 172.874 	 
C 	 -36.4606 	 73.5696 	 171.458 	 
C 	 -35.7491 	 72.6259 	 170.688 	 
H 	 -36.9127 	 73.7072 	 173.699 	 
C 	 -37.1895 	 74.762 	 170.913 	 
H 	 -36.6198 	 75.2456 	 170.115 	 
H 	 -37.316 	 75.3753 	 171.714 	 
C 	 -38.6319 	 74.4611 	 170.4 	 
H 	 -39.0169 	 75.3913 	 170.032 	 
H 	 -39.1666 	 74.2299 	 171.312 	 
C 	 -38.7924 	 73.2742 	 169.467 	 
H 	 -38.3214 	 72.4447 	 169.923 	 
H 	 -38.0925 	 73.3572 	 168.656 	 
H 	 -39.8894 	 73.1133 	 169.237 	 
H 	 -35.2471 	 71.3907 	 165.848 	 
H 	 -35.8258 	 71.5594 	 174.101 	 
