34

S 	 -5.53009 	 43.6715 	 40.0698 	 
C 	 -7.02472 	 42.7879 	 39.7757 	 
C 	 -8.08031 	 43.4671 	 40.3134 	 
C 	 -7.68218 	 44.5921 	 41.1008 	 
C 	 -6.28473 	 44.8496 	 41.0038 	 
H 	 -8.19395 	 45.2501 	 41.8374 	 
C 	 -9.52466 	 42.9771 	 40.24 	 
H 	 -10.067 	 43.0743 	 41.2107 	 
H 	 -9.5018 	 41.9463 	 39.9496 	 
C 	 -10.3954 	 43.7424 	 39.2974 	 
H 	 -11.4943 	 43.6535 	 39.3684 	 
H 	 -10.1692 	 44.8418 	 39.5697 	 
C 	 -10.0039 	 43.5693 	 37.7832 	 
H 	 -10.7002 	 44.2164 	 37.1548 	 
H 	 -9.02628 	 44.0522 	 37.6789 	 
H 	 -9.90977 	 42.5082 	 37.4961 	 
S 	 -4.69764 	 45.6264 	 43.0632 	 
C 	 -4.47786 	 47.2804 	 43.3623 	 
C 	 -5.18627 	 48.0622 	 42.5028 	 
C 	 -5.7975 	 47.3243 	 41.4694 	 
C 	 -5.62266 	 45.961 	 41.5997 	 
H 	 -5.30269 	 49.0803 	 42.7469 	 
C 	 -6.71463 	 48.047 	 40.4681 	 
H 	 -7.00394 	 47.3169 	 39.7089 	 
H 	 -6.15378 	 48.8631 	 39.9494 	 
C 	 -7.99571 	 48.4749 	 41.1619 	 
H 	 -7.68143 	 49.2412 	 41.8856 	 
H 	 -8.48145 	 47.6237 	 41.7541 	 
C 	 -9.11932 	 49.0673 	 40.219 	 
H 	 -9.21842 	 48.3902 	 39.3874 	 
H 	 -8.84739 	 50.0273 	 39.8798 	 
H 	 -10.0461 	 49.2523 	 40.804 	 
H 	 -7.12107 	 41.848 	 39.2918 	 
H 	 -3.96235 	 47.7202 	 44.2494 	 
