34

S 	 -44.2007 	 15.1454 	 78.008 	 
C 	 -42.738 	 16.1007 	 78.1949 	 
C 	 -41.6317 	 15.3518 	 77.8903 	 
C 	 -41.9678 	 14.0372 	 77.4399 	 
C 	 -43.3322 	 13.7447 	 77.4741 	 
H 	 -41.2968 	 13.3287 	 76.9611 	 
C 	 -40.2199 	 15.847 	 77.9081 	 
H 	 -40.2192 	 16.8573 	 78.3563 	 
H 	 -39.9164 	 15.9494 	 76.8963 	 
C 	 -39.1672 	 14.9494 	 78.6612 	 
H 	 -39.6353 	 14.5642 	 79.5966 	 
H 	 -39.035 	 14.0575 	 78.0519 	 
C 	 -37.8769 	 15.7461 	 79.0094 	 
H 	 -38.0513 	 16.5663 	 79.6798 	 
H 	 -37.1225 	 15.167 	 79.6225 	 
H 	 -37.4924 	 16.3579 	 78.1844 	 
S 	 -45.0045 	 12.8176 	 75.4681 	 
C 	 -45.0035 	 11.0836 	 75.1169 	 
C 	 -44.5277 	 10.3673 	 76.2046 	 
C 	 -43.7635 	 11.1843 	 77.1299 	 
C 	 -43.9682 	 12.5773 	 76.911 	 
H 	 -44.9074 	 9.35924 	 76.173 	 
C 	 -42.9179 	 10.558 	 78.2192 	 
H 	 -43.3785 	 9.74359 	 78.7273 	 
H 	 -42.8549 	 11.2709 	 78.9689 	 
C 	 -41.5647 	 10.1346 	 77.7475 	 
H 	 -41.052 	 10.8474 	 77.0515 	 
H 	 -41.7158 	 9.20866 	 77.2258 	 
C 	 -40.5271 	 9.77607 	 78.8507 	 
H 	 -40.8498 	 8.72685 	 79.2161 	 
H 	 -40.4848 	 10.5748 	 79.6302 	 
H 	 -39.4879 	 9.69444 	 78.5527 	 
H 	 -42.8136 	 17.1934 	 78.3024 	 
H 	 -45.6627 	 10.4917 	 74.4141 	 
