34

S 	 -81.9038 	 33.2366 	 133.997 	 
C 	 -80.3227 	 32.5481 	 134.234 	 
C 	 -79.3202 	 33.4945 	 133.977 	 
C 	 -79.8372 	 34.7702 	 133.621 	 
C 	 -81.1795 	 34.7414 	 133.494 	 
H 	 -79.2652 	 35.6814 	 133.256 	 
C 	 -77.8771 	 33.1606 	 134.047 	 
H 	 -77.4705 	 33.3212 	 132.974 	 
H 	 -77.8462 	 32.1256 	 134.119 	 
C 	 -77.1392 	 33.9067 	 135.132 	 
H 	 -77.5592 	 34.0258 	 136.112 	 
H 	 -76.2322 	 33.4543 	 135.397 	 
C 	 -76.8006 	 35.3646 	 134.671 	 
H 	 -76.0452 	 35.2809 	 133.887 	 
H 	 -77.6503 	 36.0248 	 134.456 	 
H 	 -76.121 	 35.7905 	 135.461 	 
S 	 -82.95 	 35.3623 	 131.584 	 
C 	 -83.7575 	 37.0092 	 131.669 	 
C 	 -83.1887 	 37.8538 	 132.592 	 
C 	 -82.2151 	 37.1279 	 133.362 	 
C 	 -82.0166 	 35.7892 	 132.971 	 
H 	 -83.4248 	 38.9305 	 132.589 	 
C 	 -81.5683 	 37.6651 	 134.645 	 
H 	 -81.0461 	 36.7998 	 135.174 	 
H 	 -82.4039 	 37.8381 	 135.219 	 
C 	 -80.6737 	 38.943 	 134.4 	 
H 	 -81.2028 	 39.72 	 134.05 	 
H 	 -80.0567 	 38.7728 	 133.546 	 
C 	 -79.8312 	 39.3922 	 135.598 	 
H 	 -79.1377 	 38.6163 	 135.947 	 
H 	 -80.5677 	 39.5228 	 136.447 	 
H 	 -79.1717 	 40.2061 	 135.377 	 
H 	 -80.1712 	 31.5329 	 134.441 	 
H 	 -84.4654 	 37.391 	 130.919 	 
