34

S 	 -11.6481 	 -10.9984 	 87.7817 	 
C 	 -12.1645 	 -10.4028 	 86.2473 	 
C 	 -11.8193 	 -9.05975 	 86.0892 	 
C 	 -11.1456 	 -8.49413 	 87.264 	 
C 	 -10.9492 	 -9.4168 	 88.2729 	 
H 	 -10.9025 	 -7.50398 	 87.3032 	 
C 	 -12.0726 	 -8.08172 	 84.919 	 
H 	 -11.6952 	 -8.43238 	 83.9696 	 
H 	 -11.5971 	 -7.0771 	 85.1522 	 
C 	 -13.6134 	 -7.95749 	 84.6586 	 
H 	 -13.9595 	 -8.91248 	 84.229 	 
H 	 -14.1449 	 -7.77028 	 85.6191 	 
C 	 -13.9175 	 -6.78464 	 83.7016 	 
H 	 -14.9907 	 -6.52633 	 83.3826 	 
H 	 -13.4631 	 -5.94388 	 84.2248 	 
H 	 -13.2551 	 -6.70588 	 82.8238 	 
S 	 -11.0665 	 -8.05865 	 90.7579 	 
C 	 -9.72705 	 -8.3506 	 91.8832 	 
C 	 -8.85904 	 -9.24267 	 91.3736 	 
C 	 -9.21027 	 -9.91224 	 90.1673 	 
C 	 -10.3566 	 -9.22933 	 89.6222 	 
H 	 -8.04606 	 -9.43445 	 92.0147 	 
C 	 -8.34465 	 -11.0232 	 89.5297 	 
H 	 -8.93335 	 -11.3039 	 88.6358 	 
H 	 -8.32461 	 -12.0229 	 89.997 	 
C 	 -6.87872 	 -10.6533 	 89.1535 	 
H 	 -6.9728 	 -9.73133 	 88.6507 	 
H 	 -6.4 	 -11.3316 	 88.4112 	 
C 	 -5.86957 	 -10.6701 	 90.3165 	 
H 	 -5.69888 	 -11.6326 	 90.7092 	 
H 	 -6.17531 	 -10.0157 	 91.1187 	 
H 	 -4.9197 	 -10.2504 	 89.9203 	 
H 	 -12.7473 	 -10.996 	 85.5707 	 
H 	 -9.57815 	 -7.69094 	 92.6753 	 
