34

S 	 50.488 	 10.0984 	 90.3247 	 
C 	 50.7455 	 11.2969 	 91.5675 	 
C 	 50.4441 	 12.5639 	 91.0706 	 
C 	 50.0927 	 12.6068 	 89.684 	 
C 	 50.1118 	 11.3572 	 89.0908 	 
H 	 49.8654 	 13.3841 	 88.9813 	 
C 	 50.3493 	 13.8095 	 91.8216 	 
H 	 49.87 	 13.4976 	 92.7287 	 
H 	 49.7232 	 14.5068 	 91.3184 	 
C 	 51.6986 	 14.5668 	 92.0658 	 
H 	 51.6192 	 15.3214 	 92.831 	 
H 	 52.3983 	 13.8694 	 92.4216 	 
C 	 52.0729 	 15.4203 	 90.8678 	 
H 	 51.2552 	 16.101 	 90.4111 	 
H 	 52.9761 	 15.9914 	 91.0343 	 
H 	 52.3558 	 14.6991 	 90.0493 	 
S 	 51.198 	 10.43 	 86.7324 	 
C 	 50.1912 	 10.4299 	 85.3509 	 
C 	 48.9865 	 11.0456 	 85.6193 	 
C 	 48.7102 	 11.3008 	 86.9978 	 
C 	 49.8504 	 11.054 	 87.7371 	 
H 	 48.388 	 11.3145 	 84.7504 	 
C 	 47.4694 	 11.841 	 87.6394 	 
H 	 47.201 	 12.8158 	 87.1955 	 
H 	 47.6299 	 12.0597 	 88.6875 	 
C 	 46.3317 	 10.8013 	 87.5579 	 
H 	 46.4999 	 10.0569 	 88.3799 	 
H 	 46.2025 	 10.2237 	 86.6004 	 
C 	 44.9871 	 11.4833 	 87.798 	 
H 	 44.2422 	 10.6606 	 87.9264 	 
H 	 44.7559 	 12.1091 	 87.0126 	 
H 	 44.964 	 11.9796 	 88.7439 	 
H 	 51.0534 	 11.1189 	 92.6098 	 
H 	 50.5519 	 10.2838 	 84.3446 	 
