34

S 	 12.8723 	 -14.4924 	 77.4568 	 
C 	 12.9404 	 -16.1209 	 78.082 	 
C 	 11.7294 	 -16.5646 	 78.6343 	 
C 	 10.6379 	 -15.6711 	 78.3358 	 
C 	 11.1082 	 -14.664 	 77.5186 	 
H 	 9.64438 	 -15.7247 	 78.6249 	 
C 	 11.5697 	 -17.933 	 79.3403 	 
H 	 12.6189 	 -18.2991 	 79.4348 	 
H 	 11.0675 	 -18.5319 	 78.6333 	 
C 	 10.8616 	 -17.8463 	 80.7061 	 
H 	 11.3661 	 -17.0385 	 81.2094 	 
H 	 9.82823 	 -17.5513 	 80.5102 	 
C 	 10.9927 	 -19.1388 	 81.5109 	 
H 	 12.0342 	 -19.4394 	 81.665 	 
H 	 10.5609 	 -19.1056 	 82.4647 	 
H 	 10.4696 	 -19.9135 	 80.9329 	 
S 	 10.5356 	 -12.0182 	 77.396 	 
C 	 9.18328 	 -11.3961 	 76.467 	 
C 	 8.62587 	 -12.433 	 75.7435 	 
C 	 9.2483 	 -13.7221 	 75.9071 	 
C 	 10.3488 	 -13.6398 	 76.8023 	 
H 	 7.81032 	 -12.1483 	 75.05 	 
C 	 8.63239 	 -14.8925 	 75.2719 	 
H 	 7.57009 	 -14.7593 	 75.4266 	 
H 	 8.9316 	 -15.8006 	 75.8655 	 
C 	 9.05599 	 -14.8199 	 73.7424 	 
H 	 10.165 	 -14.6802 	 73.8393 	 
H 	 8.61501 	 -13.9325 	 73.3201 	 
C 	 8.82121 	 -16.2247 	 73.1539 	 
H 	 9.23788 	 -16.9316 	 73.8591 	 
H 	 9.26365 	 -16.3716 	 72.1931 	 
H 	 7.73134 	 -16.4423 	 73.0052 	 
H 	 13.9316 	 -16.6147 	 78.1735 	 
H 	 8.87443 	 -10.3889 	 76.2986 	 
