34

S 	 -15.1592 	 51.7383 	 43.1411 	 
C 	 -16.7896 	 52.4649 	 43.2697 	 
C 	 -16.7719 	 53.4361 	 44.2036 	 
C 	 -15.604 	 53.4059 	 45.0035 	 
C 	 -14.687 	 52.4323 	 44.6705 	 
H 	 -15.4082 	 54.1298 	 45.7716 	 
C 	 -17.8511 	 54.4529 	 44.4026 	 
H 	 -17.59 	 54.9575 	 45.3151 	 
H 	 -18.7426 	 53.8924 	 44.6609 	 
C 	 -18.1253 	 55.455 	 43.2435 	 
H 	 -17.1978 	 56.0283 	 43.0582 	 
H 	 -18.2144 	 54.7666 	 42.3673 	 
C 	 -19.3308 	 56.3571 	 43.499 	 
H 	 -19.075 	 56.9315 	 44.3399 	 
H 	 -19.4844 	 57.0965 	 42.7302 	 
H 	 -20.2381 	 55.715 	 43.5406 	 
S 	 -12.2284 	 51.1991 	 44.3659 	 
C 	 -10.9165 	 51.4326 	 45.557 	 
C 	 -11.415 	 52.2836 	 46.5711 	 
C 	 -12.8428 	 52.6321 	 46.4726 	 
C 	 -13.4146 	 52.1745 	 45.268 	 
H 	 -10.7418 	 52.4962 	 47.4173 	 
C 	 -13.4586 	 53.333 	 47.6329 	 
H 	 -13.0152 	 52.7656 	 48.4735 	 
H 	 -14.5034 	 53.0826 	 47.6342 	 
C 	 -13.2419 	 54.848 	 47.7302 	 
H 	 -14.0865 	 55.3103 	 48.2322 	 
H 	 -13.2074 	 55.2387 	 46.7168 	 
C 	 -11.9415 	 55.269 	 48.4264 	 
H 	 -11.0759 	 55.1096 	 47.7854 	 
H 	 -11.8147 	 54.8582 	 49.4024 	 
H 	 -11.9604 	 56.3175 	 48.6696 	 
H 	 -17.4953 	 52.3603 	 42.3959 	 
H 	 -9.96736 	 50.9812 	 45.6661 	 
