34

S 	 10.5277 	 21.0632 	 38.0487 	 
C 	 11.9654 	 21.5673 	 37.2058 	 
C 	 12.9452 	 21.9275 	 38.1042 	 
C 	 12.4162 	 22.091 	 39.4073 	 
C 	 11.1004 	 21.8569 	 39.4293 	 
H 	 12.9374 	 22.3261 	 40.3084 	 
C 	 14.3776 	 22.153 	 37.8251 	 
H 	 14.7217 	 21.2251 	 37.4503 	 
H 	 14.8831 	 22.3546 	 38.766 	 
C 	 14.6732 	 23.22 	 36.8143 	 
H 	 14.1575 	 23.1838 	 35.8555 	 
H 	 14.3856 	 24.1465 	 37.32 	 
C 	 16.1311 	 23.45 	 36.4528 	 
H 	 16.3013 	 24.4753 	 36.1666 	 
H 	 16.6485 	 23.3007 	 37.4136 	 
H 	 16.6571 	 22.7627 	 35.7881 	 
S 	 9.31423 	 20.5077 	 41.0463 	 
C 	 8.80806 	 21.0383 	 42.5975 	 
C 	 9.52486 	 22.1843 	 42.8828 	 
C 	 10.3672 	 22.6608 	 41.8402 	 
C 	 10.2871 	 21.8869 	 40.6709 	 
H 	 9.35134 	 22.6277 	 43.8356 	 
C 	 11.0504 	 23.925 	 42.0417 	 
H 	 10.1954 	 24.5605 	 42.1822 	 
H 	 11.4492 	 24.1786 	 41.0642 	 
C 	 12.0986 	 24.0951 	 43.1546 	 
H 	 13.0682 	 23.7459 	 42.7539 	 
H 	 11.9279 	 23.415 	 43.9823 	 
C 	 12.2747 	 25.6156 	 43.4707 	 
H 	 13.3339 	 25.7606 	 43.7235 	 
H 	 11.7164 	 26.0743 	 44.3458 	 
H 	 12.2266 	 26.2263 	 42.5592 	 
H 	 12.1782 	 21.2535 	 36.207 	 
H 	 8.12258 	 20.6162 	 43.3342 	 
