34

S 	 -117.318 	 44.6291 	 133.189 	 
C 	 -117.89 	 45.3556 	 134.673 	 
C 	 -116.854 	 46.1229 	 135.152 	 
C 	 -115.767 	 46.296 	 134.299 	 
C 	 -115.903 	 45.7138 	 133.06 	 
H 	 -114.944 	 46.8597 	 134.591 	 
C 	 -116.644 	 46.5379 	 136.633 	 
H 	 -117.461 	 47.168 	 136.841 	 
H 	 -115.791 	 47.2144 	 136.678 	 
C 	 -116.726 	 45.3674 	 137.554 	 
H 	 -116.687 	 45.6685 	 138.601 	 
H 	 -117.778 	 44.9426 	 137.357 	 
C 	 -115.624 	 44.374 	 137.309 	 
H 	 -114.739 	 44.9214 	 136.99 	 
H 	 -115.383 	 43.7298 	 138.071 	 
H 	 -115.993 	 43.7404 	 136.486 	 
S 	 -114.506 	 44.2397 	 131.276 	 
C 	 -114.104 	 45.0409 	 129.768 	 
C 	 -113.947 	 46.3375 	 129.97 	 
C 	 -114.473 	 46.8334 	 131.209 	 
C 	 -114.928 	 45.7587 	 131.994 	 
H 	 -113.573 	 47.0007 	 129.146 	 
C 	 -114.566 	 48.2868 	 131.463 	 
H 	 -113.559 	 48.6372 	 131.482 	 
H 	 -114.917 	 48.4402 	 132.459 	 
C 	 -115.317 	 49.1525 	 130.406 	 
H 	 -115.042 	 48.8745 	 129.39 	 
H 	 -115.001 	 50.1834 	 130.52 	 
C 	 -116.81 	 48.8511 	 130.629 	 
H 	 -117.216 	 48.5309 	 131.565 	 
H 	 -116.955 	 47.9399 	 130.04 	 
H 	 -117.449 	 49.6853 	 130.338 	 
H 	 -118.785 	 45.0293 	 135.13 	 
H 	 -113.703 	 44.564 	 128.954 	 
