34

S 	 12.6519 	 -11.5945 	 78.0521 	 
C 	 13.145 	 -13.149 	 78.6938 	 
C 	 12.1689 	 -14.1049 	 78.3273 	 
C 	 11.165 	 -13.6148 	 77.4915 	 
C 	 11.2558 	 -12.2636 	 77.2865 	 
H 	 10.4453 	 -14.1756 	 76.9666 	 
C 	 12.1676 	 -15.5147 	 78.8576 	 
H 	 11.1425 	 -15.8804 	 78.9616 	 
H 	 12.6306 	 -15.6135 	 79.8145 	 
C 	 12.8603 	 -16.5572 	 78.0244 	 
H 	 12.3929 	 -16.6665 	 77.0319 	 
H 	 13.8568 	 -16.2379 	 77.8497 	 
C 	 13.0336 	 -18.0311 	 78.4886 	 
H 	 12.096 	 -18.4144 	 78.8061 	 
H 	 13.3903 	 -18.7003 	 77.6743 	 
H 	 13.6523 	 -18.1268 	 79.3914 	 
S 	 9.93935 	 -9.9288 	 77.3874 	 
C 	 8.96784 	 -9.41273 	 76.0632 	 
C 	 9.00785 	 -10.3397 	 75.0398 	 
C 	 9.77177 	 -11.5449 	 75.2548 	 
C 	 10.3615 	 -11.3666 	 76.5442 	 
H 	 8.51966 	 -10.0249 	 74.1154 	 
C 	 10.0167 	 -12.7579 	 74.2804 	 
H 	 9.52816 	 -13.6086 	 74.7885 	 
H 	 11.0846 	 -13.0538 	 74.2736 	 
C 	 9.60276 	 -12.4348 	 72.7771 	 
H 	 10.2676 	 -11.5414 	 72.6383 	 
H 	 8.49364 	 -12.1489 	 72.8708 	 
C 	 9.74965 	 -13.5149 	 71.6402 	 
H 	 10.8046 	 -13.8328 	 71.5919 	 
H 	 9.34175 	 -13.1272 	 70.6777 	 
H 	 9.27326 	 -14.4639 	 71.8357 	 
H 	 14.0791 	 -13.4563 	 79.1884 	 
H 	 8.47633 	 -8.44149 	 76.032 	 
