34

S 	 32.1174 	 29.6313 	 55.8315 	 
C 	 33.4827 	 28.7795 	 56.5267 	 
C 	 34.4534 	 29.595 	 56.9326 	 
C 	 34.0825 	 30.9753 	 56.6122 	 
C 	 32.8378 	 31.1814 	 56.0545 	 
H 	 34.7009 	 31.8158 	 56.8408 	 
C 	 35.6727 	 29.2365 	 57.7155 	 
H 	 36.4596 	 29.7827 	 57.2192 	 
H 	 35.8947 	 28.1047 	 57.5649 	 
C 	 35.5706 	 29.6354 	 59.1634 	 
H 	 35.296 	 30.7262 	 59.1621 	 
H 	 34.6814 	 29.2026 	 59.5495 	 
C 	 36.8457 	 29.434 	 59.9908 	 
H 	 36.725 	 29.807 	 60.9411 	 
H 	 37.1494 	 28.3954 	 59.8949 	 
H 	 37.6597 	 29.9276 	 59.5155 	 
S 	 31.4984 	 32.7612 	 54.2722 	 
C 	 31.0693 	 34.3405 	 54.7053 	 
C 	 31.736 	 34.7022 	 55.8395 	 
C 	 32.3721 	 33.6856 	 56.5582 	 
C 	 32.1907 	 32.4546 	 55.8546 	 
H 	 31.6333 	 35.7582 	 56.1558 	 
C 	 33.1362 	 33.9975 	 57.9089 	 
H 	 33.5027 	 33.1382 	 58.3697 	 
H 	 32.3866 	 34.3467 	 58.687 	 
C 	 34.2139 	 35.0433 	 57.7992 	 
H 	 34.661 	 35.1725 	 58.8181 	 
H 	 33.5799 	 35.9156 	 57.4849 	 
C 	 35.2835 	 34.8227 	 56.7826 	 
H 	 36.0268 	 35.6119 	 56.9112 	 
H 	 34.9997 	 34.7687 	 55.7667 	 
H 	 35.748 	 33.881 	 56.8928 	 
H 	 33.5878 	 27.6669 	 56.5268 	 
H 	 30.485 	 35.0671 	 54.1851 	 
