34

S 	 -2.8321 	 -13.3425 	 70.3531 	 
C 	 -4.55697 	 -12.8993 	 70.7686 	 
C 	 -5.00905 	 -11.846 	 70.0369 	 
C 	 -3.99103 	 -11.4756 	 69.1401 	 
C 	 -2.78205 	 -12.1721 	 69.0607 	 
H 	 -4.16675 	 -10.7014 	 68.4985 	 
C 	 -6.35684 	 -11.1456 	 70.0883 	 
H 	 -6.78998 	 -11.2273 	 71.0817 	 
H 	 -7.1595 	 -11.5989 	 69.5146 	 
C 	 -6.38672 	 -9.64913 	 69.8008 	 
H 	 -5.64884 	 -9.21562 	 70.4916 	 
H 	 -5.88903 	 -9.45994 	 68.8172 	 
C 	 -7.77841 	 -9.00776 	 69.9471 	 
H 	 -8.44479 	 -9.32712 	 69.1493 	 
H 	 -8.27341 	 -9.27244 	 70.9148 	 
H 	 -7.83655 	 -7.9175 	 69.967 	 
S 	 -1.32323 	 -10.3125 	 67.7577 	 
C 	 0.0979496 	 -10.6859 	 66.8801 	 
C 	 0.398331 	 -12.0571 	 66.9456 	 
C 	 -0.589116 	 -12.8108 	 67.6883 	 
C 	 -1.57326 	 -11.977 	 68.2393 	 
H 	 1.29273 	 -12.3984 	 66.4609 	 
C 	 -0.57829 	 -14.2515 	 67.7094 	 
H 	 -0.0552053 	 -14.5728 	 66.7786 	 
H 	 -1.57399 	 -14.6629 	 67.611 	 
C 	 0.0562441 	 -14.896 	 68.865 	 
H 	 -0.214487 	 -14.4537 	 69.8005 	 
H 	 1.15678 	 -14.7412 	 68.8077 	 
C 	 -0.108522 	 -16.4412 	 69.0697 	 
H 	 -1.17911 	 -16.6182 	 69.0892 	 
H 	 0.204408 	 -16.7637 	 70.105 	 
H 	 0.326718 	 -17.0524 	 68.2763 	 
H 	 -5.1356 	 -13.3523 	 71.4871 	 
H 	 0.647773 	 -9.89174 	 66.3479 	 
