34

S 	 -1.08063 	 75.7553 	 48.3146 	 
C 	 -0.848499 	 74.1171 	 48.8041 	 
C 	 -1.43939 	 73.2461 	 47.8731 	 
C 	 -2.40039 	 73.8761 	 47.0566 	 
C 	 -2.35029 	 75.241 	 47.1932 	 
H 	 -2.88449 	 73.3954 	 46.2071 	 
C 	 -1.15814 	 71.8052 	 47.8933 	 
H 	 -2.17928 	 71.3359 	 48.1152 	 
H 	 -0.556595 	 71.7439 	 48.7588 	 
C 	 -0.502688 	 71.2307 	 46.6457 	 
H 	 -0.327756 	 70.1617 	 46.7744 	 
H 	 -1.13567 	 71.2478 	 45.7719 	 
C 	 0.832098 	 71.9517 	 46.4343 	 
H 	 1.6032 	 71.3431 	 45.9566 	 
H 	 0.573393 	 72.8443 	 45.7927 	 
H 	 1.3032 	 72.2797 	 47.3768 	 
S 	 -4.27989 	 76.9922 	 47.4737 	 
C 	 -5.06348 	 77.6837 	 46.0582 	 
C 	 -4.37333 	 77.3278 	 44.9238 	 
C 	 -3.18425 	 76.5806 	 45.1566 	 
C 	 -3.1196 	 76.2256 	 46.4647 	 
H 	 -4.77098 	 77.5568 	 43.9401 	 
C 	 -2.22514 	 76.1705 	 44.0889 	 
H 	 -2.79729 	 75.902 	 43.141 	 
H 	 -1.83994 	 75.1522 	 44.3162 	 
C 	 -1.15664 	 77.2779 	 43.7473 	 
H 	 -0.407417 	 76.8682 	 43.0894 	 
H 	 -0.751765 	 77.4809 	 44.6886 	 
C 	 -1.75231 	 78.5582 	 43.1347 	 
H 	 -2.22968 	 79.2702 	 43.8275 	 
H 	 -2.43643 	 78.1962 	 42.3651 	 
H 	 -0.917401 	 79.0766 	 42.8091 	 
H 	 -0.260598 	 73.8007 	 49.6728 	 
H 	 -6.02343 	 78.199 	 46.0483 	 
