34

S 	 -93.8038 	 59.699 	 124.094 	 
C 	 -93.601 	 58.6882 	 122.671 	 
C 	 -92.7405 	 57.6337 	 122.909 	 
C 	 -92.2425 	 57.5349 	 124.251 	 
C 	 -92.6837 	 58.6508 	 124.977 	 
H 	 -91.6686 	 56.8471 	 124.817 	 
C 	 -92.4474 	 56.6074 	 121.86 	 
H 	 -92.7882 	 56.906 	 120.878 	 
H 	 -93.1252 	 55.8113 	 122.187 	 
C 	 -91.0313 	 56.007 	 121.877 	 
H 	 -90.3465 	 56.7419 	 121.524 	 
H 	 -90.7429 	 55.7619 	 122.925 	 
C 	 -90.9143 	 54.7154 	 121.13 	 
H 	 -89.9464 	 54.3379 	 121.226 	 
H 	 -91.6208 	 53.9556 	 121.352 	 
H 	 -91.1796 	 54.8707 	 120.102 	 
S 	 -93.983 	 58.7955 	 127.341 	 
C 	 -93.1276 	 59.2815 	 128.839 	 
C 	 -91.7557 	 59.0992 	 128.636 	 
C 	 -91.3623 	 59.0627 	 127.239 	 
C 	 -92.5043 	 58.9562 	 126.417 	 
H 	 -91.027 	 59.0686 	 129.39 	 
C 	 -89.9697 	 58.8913 	 126.904 	 
H 	 -89.3465 	 59.607 	 127.519 	 
H 	 -89.741 	 59.3062 	 125.909 	 
C 	 -89.3872 	 57.4947 	 126.962 	 
H 	 -89.9201 	 56.7843 	 126.378 	 
H 	 -89.5563 	 57.0869 	 127.988 	 
C 	 -87.8881 	 57.5535 	 126.767 	 
H 	 -87.3877 	 58.1494 	 127.478 	 
H 	 -87.5828 	 58.0852 	 125.875 	 
H 	 -87.4303 	 56.609 	 126.619 	 
H 	 -94.1925 	 58.6382 	 121.758 	 
H 	 -93.5698 	 59.4734 	 129.854 	 
