34

S 	 -97.3139 	 47.0746 	 121.787 	 
C 	 -95.896 	 46.0061 	 122.133 	 
C 	 -96.1547 	 45.123 	 123.138 	 
C 	 -97.4781 	 45.3754 	 123.749 	 
C 	 -98.1513 	 46.421 	 123.134 	 
H 	 -97.886 	 44.9628 	 124.671 	 
C 	 -95.2723 	 44.1171 	 123.761 	 
H 	 -94.977 	 44.4273 	 124.776 	 
H 	 -94.3377 	 44.1521 	 123.202 	 
C 	 -95.933 	 42.6996 	 123.72 	 
H 	 -96.9006 	 42.7106 	 124.237 	 
H 	 -96.2205 	 42.3908 	 122.714 	 
C 	 -95.0645 	 41.6326 	 124.47 	 
H 	 -95.5431 	 40.6856 	 124.478 	 
H 	 -94.0272 	 41.6352 	 124.101 	 
H 	 -95.0401 	 41.8912 	 125.535 	 
S 	 -99.7822 	 48.6636 	 123.071 	 
C 	 -101.29 	 48.5925 	 123.956 	 
C 	 -101.503 	 47.3661 	 124.558 	 
C 	 -100.519 	 46.4278 	 124.219 	 
C 	 -99.3981 	 46.9881 	 123.584 	 
H 	 -102.485 	 47.2267 	 125.01 	 
C 	 -100.717 	 44.9312 	 124.568 	 
H 	 -99.9973 	 44.1685 	 124.186 	 
H 	 -101.713 	 44.7748 	 124.197 	 
C 	 -100.889 	 44.6885 	 126.093 	 
H 	 -101.783 	 45.1599 	 126.499 	 
H 	 -100.089 	 45.203 	 126.553 	 
C 	 -100.788 	 43.1656 	 126.601 	 
H 	 -99.8216 	 42.7146 	 126.332 	 
H 	 -101.63 	 42.518 	 126.265 	 
H 	 -100.791 	 43.1345 	 127.677 	 
H 	 -94.8918 	 46.0909 	 121.698 	 
H 	 -101.966 	 49.4747 	 124.013 	 
