34

S 	 -28.0143 	 69.6056 	 104.81 	 
C 	 -28.6544 	 68.5007 	 103.66 	 
C 	 -29.1942 	 67.391 	 104.297 	 
C 	 -29.1933 	 67.4816 	 105.736 	 
C 	 -28.6795 	 68.6697 	 106.18 	 
H 	 -29.6433 	 66.6631 	 106.391 	 
C 	 -29.9414 	 66.3049 	 103.563 	 
H 	 -30.6487 	 66.8263 	 102.919 	 
H 	 -30.6389 	 65.8922 	 104.286 	 
C 	 -28.9942 	 65.3197 	 102.77 	 
H 	 -28.3291 	 65.943 	 102.137 	 
H 	 -28.2943 	 64.8142 	 103.435 	 
C 	 -29.7933 	 64.1985 	 102.057 	 
H 	 -30.4361 	 63.629 	 102.762 	 
H 	 -30.3976 	 64.6761 	 101.206 	 
H 	 -29.2736 	 63.4791 	 101.625 	 
S 	 -27.0047 	 68.8536 	 108.258 	 
C 	 -27.4404 	 69.7347 	 109.693 	 
C 	 -28.7496 	 70.2549 	 109.577 	 
C 	 -29.4137 	 69.8262 	 108.399 	 
C 	 -28.5602 	 69.1436 	 107.542 	 
H 	 -29.1899 	 70.8721 	 110.34 	 
C 	 -30.8537 	 70.3232 	 108.002 	 
H 	 -31.6125 	 69.7899 	 108.533 	 
H 	 -31.04 	 70.0034 	 106.941 	 
C 	 -31.0677 	 71.8256 	 108.003 	 
H 	 -30.4785 	 72.3047 	 107.254 	 
H 	 -30.7414 	 72.3459 	 108.941 	 
C 	 -32.4867 	 72.3083 	 107.771 	 
H 	 -33.0337 	 72.1275 	 108.685 	 
H 	 -33.051 	 71.6988 	 106.987 	 
H 	 -32.679 	 73.4339 	 107.599 	 
H 	 -28.3922 	 68.6564 	 102.603 	 
H 	 -26.7487 	 69.841 	 110.534 	 
