34

S 	 3.58212 	 -13.8099 	 84.6785 	 
C 	 4.29821 	 -14.6138 	 83.3018 	 
C 	 5.24269 	 -15.5681 	 83.6794 	 
C 	 5.35879 	 -15.6307 	 85.1033 	 
C 	 4.44122 	 -14.8049 	 85.7822 	 
H 	 5.94025 	 -16.2954 	 85.7019 	 
C 	 6.0338 	 -16.4448 	 82.778 	 
H 	 7.06355 	 -16.1385 	 82.7984 	 
H 	 5.76736 	 -16.3688 	 81.7558 	 
C 	 5.78989 	 -18.0072 	 82.9861 	 
H 	 5.95172 	 -18.3475 	 84.0448 	 
H 	 4.7657 	 -18.2564 	 82.7006 	 
C 	 6.59993 	 -18.8357 	 81.9819 	 
H 	 7.64738 	 -18.4595 	 81.9375 	 
H 	 6.55153 	 -19.9058 	 82.1299 	 
H 	 6.14129 	 -18.7165 	 80.9984 	 
S 	 4.32255 	 -16.3621 	 88.0323 	 
C 	 4.18601 	 -15.6693 	 89.6055 	 
C 	 3.93569 	 -14.3095 	 89.4808 	 
C 	 3.96948 	 -13.794 	 88.128 	 
C 	 4.25122 	 -14.789 	 87.2389 	 
H 	 3.78925 	 -13.6725 	 90.3134 	 
C 	 4.00009 	 -12.3242 	 87.8666 	 
H 	 3.12963 	 -11.9079 	 88.4346 	 
H 	 3.87213 	 -12.0818 	 86.8028 	 
C 	 5.33811 	 -11.6494 	 88.3202 	 
H 	 6.16742 	 -11.8868 	 87.6753 	 
H 	 5.6476 	 -11.8963 	 89.3474 	 
C 	 5.25625 	 -10.0495 	 88.3553 	 
H 	 4.90947 	 -9.54172 	 87.4921 	 
H 	 6.28951 	 -9.67693 	 88.5953 	 
H 	 4.64665 	 -9.65813 	 89.1553 	 
H 	 3.88725 	 -14.4298 	 82.3424 	 
H 	 4.17862 	 -16.2687 	 90.4593 	 
