34

S 	 -25.5333 	 -2.69458 	 100.664 	 
C 	 -25.4624 	 -3.113 	 102.377 	 
C 	 -26.5786 	 -2.89758 	 103.1 	 
C 	 -27.5681 	 -2.21062 	 102.312 	 
C 	 -27.1387 	 -1.9784 	 101.036 	 
H 	 -28.4991 	 -1.9155 	 102.713 	 
C 	 -26.7532 	 -3.19593 	 104.571 	 
H 	 -27.7673 	 -2.80136 	 104.842 	 
H 	 -25.984 	 -2.6997 	 105.154 	 
C 	 -26.6734 	 -4.67508 	 104.901 	 
H 	 -25.6635 	 -4.9547 	 104.552 	 
H 	 -26.566 	 -4.71833 	 105.93 	 
C 	 -27.7913 	 -5.63769 	 104.317 	 
H 	 -27.8383 	 -5.62781 	 103.228 	 
H 	 -27.7086 	 -6.69163 	 104.686 	 
H 	 -28.7502 	 -5.29655 	 104.671 	 
S 	 -27.3048 	 -0.0524112 	 99.1093 	 
C 	 -28.7481 	 0.0568985 	 98.1438 	 
C 	 -29.6858 	 -0.922931 	 98.535 	 
C 	 -29.2259 	 -1.80533 	 99.4937 	 
C 	 -27.9634 	 -1.48604 	 99.9402 	 
H 	 -30.6536 	 -0.950106 	 98.0309 	 
C 	 -30.2274 	 -2.90519 	 99.9109 	 
H 	 -29.7076 	 -3.42694 	 100.669 	 
H 	 -30.2794 	 -3.62736 	 99.1008 	 
C 	 -31.5559 	 -2.45754 	 100.429 	 
H 	 -32.0778 	 -1.88927 	 99.7235 	 
H 	 -31.3991 	 -1.73375 	 101.213 	 
C 	 -32.5281 	 -3.55677 	 100.778 	 
H 	 -33.0908 	 -3.21229 	 101.574 	 
H 	 -31.9557 	 -4.41091 	 101.191 	 
H 	 -32.9202 	 -4.10899 	 99.8672 	 
H 	 -24.5495 	 -3.39021 	 102.89 	 
H 	 -28.8986 	 0.683016 	 97.2737 	 
