34

S 	 -40.6834 	 17.5407 	 74.8688 	 
C 	 -39.4533 	 18.7082 	 75.2011 	 
C 	 -38.4867 	 18.2409 	 76.02 	 
C 	 -38.7661 	 16.8964 	 76.4231 	 
C 	 -39.8268 	 16.3632 	 75.7804 	 
H 	 -38.1615 	 16.3057 	 77.0731 	 
C 	 -37.2677 	 19.0123 	 76.516 	 
H 	 -37.1815 	 18.777 	 77.5894 	 
H 	 -37.4893 	 20.0661 	 76.4864 	 
C 	 -35.9285 	 18.6078 	 75.794 	 
H 	 -36.0316 	 18.8686 	 74.739 	 
H 	 -35.086 	 19.259 	 76.1362 	 
C 	 -35.5425 	 17.1345 	 75.8169 	 
H 	 -35.3686 	 16.8019 	 76.889 	 
H 	 -36.3905 	 16.5843 	 75.4776 	 
H 	 -34.59 	 16.9113 	 75.2716 	 
S 	 -42.1399 	 14.9634 	 76.0329 	 
C 	 -42.0208 	 13.2758 	 76.3162 	 
C 	 -40.7185 	 12.7793 	 76.3298 	 
C 	 -39.7553 	 13.8147 	 76.0578 	 
C 	 -40.3525 	 15.0402 	 75.8659 	 
H 	 -40.458 	 11.7358 	 76.5968 	 
C 	 -38.2421 	 13.5218 	 76.0842 	 
H 	 -38.213 	 12.5186 	 76.6145 	 
H 	 -37.8123 	 14.2306 	 76.7301 	 
C 	 -37.5173 	 13.4884 	 74.6433 	 
H 	 -37.834 	 14.3798 	 74.0952 	 
H 	 -37.798 	 12.5242 	 74.0787 	 
C 	 -35.9811 	 13.6904 	 74.8586 	 
H 	 -35.2891 	 13.9208 	 74.0017 	 
H 	 -35.5579 	 12.6962 	 75.0902 	 
H 	 -35.6699 	 14.421 	 75.614 	 
H 	 -39.5219 	 19.7139 	 74.8799 	 
H 	 -42.8425 	 12.6051 	 76.2898 	 
