34

S 	 -24.9639 	 -10.1874 	 87.3286 	 
C 	 -26.5464 	 -10.7553 	 87.7754 	 
C 	 -27.3838 	 -9.68813 	 88.0867 	 
C 	 -26.6467 	 -8.48602 	 88.1992 	 
C 	 -25.3102 	 -8.62653 	 88.0096 	 
H 	 -27.0544 	 -7.5003 	 88.4793 	 
C 	 -28.8874 	 -9.60837 	 88.1463 	 
H 	 -29.1619 	 -8.61661 	 88.0943 	 
H 	 -29.1454 	 -9.9192 	 89.0962 	 
C 	 -29.7362 	 -10.354 	 87.1403 	 
H 	 -29.4569 	 -11.3916 	 87.2245 	 
H 	 -30.7563 	 -10.3359 	 87.3664 	 
C 	 -29.6272 	 -9.69974 	 85.7377 	 
H 	 -30.0776 	 -10.3417 	 85.0302 	 
H 	 -30.0108 	 -8.62653 	 85.5761 	 
H 	 -28.6542 	 -9.66897 	 85.2432 	 
S 	 -22.8414 	 -8.1046 	 89.3423 	 
C 	 -22.1038 	 -6.49917 	 89.2318 	 
C 	 -22.944 	 -5.69094 	 88.5287 	 
C 	 -24.161 	 -6.27124 	 87.932 	 
C 	 -24.258 	 -7.62076 	 88.2715 	 
H 	 -22.6756 	 -4.60224 	 88.3204 	 
C 	 -25.1252 	 -5.37551 	 87.1434 	 
H 	 -24.8631 	 -4.27458 	 87.212 	 
H 	 -26.0664 	 -5.50963 	 87.7736 	 
C 	 -25.2042 	 -5.82585 	 85.7513 	 
H 	 -25.2521 	 -6.90955 	 85.5107 	 
H 	 -24.2683 	 -5.58528 	 85.2899 	 
C 	 -26.3842 	 -5.10757 	 85.1255 	 
H 	 -26.5176 	 -5.40607 	 84.1324 	 
H 	 -26.3839 	 -4.03954 	 85.2951 	 
H 	 -27.2786 	 -5.43285 	 85.6071 	 
H 	 -26.9255 	 -11.76 	 87.6152 	 
H 	 -21.0694 	 -6.25878 	 89.6039 	 
