34

S 	 -44.6276 	 36.5174 	 80.7959 	 
C 	 -43.8177 	 37.9791 	 80.6281 	 
C 	 -42.4903 	 37.8323 	 81.0525 	 
C 	 -42.2285 	 36.5115 	 81.5792 	 
C 	 -43.2865 	 35.6283 	 81.4608 	 
H 	 -41.3032 	 36.188 	 81.8856 	 
C 	 -41.4734 	 38.9518 	 81.179 	 
H 	 -41.9214 	 39.9361 	 81.2392 	 
H 	 -41.03 	 38.9319 	 80.1762 	 
C 	 -40.3887 	 38.7405 	 82.2403 	 
H 	 -40.8502 	 38.5827 	 83.1423 	 
H 	 -39.7511 	 37.9354 	 82.0299 	 
C 	 -39.4665 	 39.9288 	 82.4264 	 
H 	 -38.7477 	 39.7395 	 83.2581 	 
H 	 -38.9782 	 40.231 	 81.4982 	 
H 	 -40.0365 	 40.8092 	 82.7081 	 
S 	 -44.1595 	 33.1178 	 80.6397 	 
C 	 -43.9557 	 31.8142 	 81.7755 	 
C 	 -43.1659 	 32.1142 	 82.8569 	 
C 	 -42.8099 	 33.5051 	 82.8663 	 
C 	 -43.3719 	 34.2044 	 81.8037 	 
H 	 -42.8082 	 31.2603 	 83.4672 	 
C 	 -41.976 	 34.1363 	 83.9544 	 
H 	 -42.4695 	 33.8316 	 84.8742 	 
H 	 -42.087 	 35.1767 	 83.9003 	 
C 	 -40.5704 	 33.6315 	 84.0531 	 
H 	 -40.0232 	 33.9917 	 83.1987 	 
H 	 -40.5242 	 32.5172 	 83.9111 	 
C 	 -39.8388 	 34.1302 	 85.3027 	 
H 	 -40.1861 	 33.8168 	 86.3261 	 
H 	 -39.8848 	 35.2627 	 85.3781 	 
H 	 -38.802 	 33.766 	 85.299 	 
H 	 -44.3304 	 38.9074 	 80.4077 	 
H 	 -44.3091 	 30.7439 	 81.5942 	 
