34

S 	 -39.2696 	 68.6892 	 142.204 	 
C 	 -39.265 	 68.5726 	 140.419 	 
C 	 -38.05 	 68.0299 	 140.07 	 
C 	 -37.2427 	 67.655 	 141.143 	 
C 	 -37.7532 	 67.8585 	 142.418 	 
H 	 -36.2179 	 67.3132 	 141.08 	 
C 	 -37.6511 	 67.9111 	 138.603 	 
H 	 -36.5921 	 67.9271 	 138.476 	 
H 	 -38.0198 	 68.8547 	 138.166 	 
C 	 -38.1025 	 66.6524 	 137.874 	 
H 	 -39.1938 	 66.5393 	 137.825 	 
H 	 -37.6868 	 66.7988 	 136.855 	 
C 	 -37.565 	 65.2815 	 138.384 	 
H 	 -36.4627 	 65.2811 	 138.409 	 
H 	 -37.9436 	 65.1684 	 139.368 	 
H 	 -38.0603 	 64.381 	 138.013 	 
S 	 -37.4319 	 69.0301 	 144.962 	 
C 	 -36.1792 	 68.391 	 145.958 	 
C 	 -35.673 	 67.2176 	 145.524 	 
C 	 -36.1332 	 66.8307 	 144.212 	 
C 	 -37.0559 	 67.7981 	 143.709 	 
H 	 -34.9903 	 66.5891 	 146.085 	 
C 	 -35.6561 	 65.592 	 143.53 	 
H 	 -35.4578 	 65.8543 	 142.508 	 
H 	 -36.4759 	 64.8301 	 143.58 	 
C 	 -34.3579 	 64.8489 	 143.976 	 
H 	 -34.3713 	 63.8597 	 143.599 	 
H 	 -34.3752 	 64.8163 	 145.036 	 
C 	 -33.0468 	 65.6044 	 143.448 	 
H 	 -33.0147 	 66.6239 	 143.8 	 
H 	 -32.9383 	 65.6309 	 142.382 	 
H 	 -32.0915 	 65.191 	 143.714 	 
H 	 -40.1367 	 68.6632 	 139.767 	 
H 	 -35.8829 	 68.7058 	 146.896 	 
