34

S 	 10.7203 	 22.9803 	 38.695 	 
C 	 12.46 	 23.1932 	 38.3657 	 
C 	 13.3201 	 22.724 	 39.3586 	 
C 	 12.5439 	 22.1948 	 40.4828 	 
C 	 11.1783 	 22.2307 	 40.2262 	 
H 	 12.8695 	 21.7854 	 41.4408 	 
C 	 14.8337 	 22.8803 	 39.5156 	 
H 	 15.2906 	 23.1101 	 38.5066 	 
H 	 15.2615 	 21.9156 	 39.8422 	 
C 	 15.347 	 23.8664 	 40.6266 	 
H 	 15.3175 	 24.8843 	 40.2214 	 
H 	 14.7062 	 23.7835 	 41.5175 	 
C 	 16.7861 	 23.5192 	 40.9876 	 
H 	 17.1977 	 24.1056 	 41.8755 	 
H 	 16.9912 	 22.4806 	 41.1372 	 
H 	 17.5147 	 23.8694 	 40.1856 	 
S 	 9.48184 	 20.1144 	 40.8875 	 
C 	 8.37401 	 20.3639 	 42.174 	 
C 	 8.62067 	 21.5345 	 42.8471 	 
C 	 9.62416 	 22.3289 	 42.2837 	 
C 	 10.1306 	 21.7997 	 41.0881 	 
H 	 7.99638 	 21.7876 	 43.7116 	 
C 	 10.0515 	 23.7194 	 42.8542 	 
H 	 9.35979 	 24.0491 	 43.6088 	 
H 	 9.94435 	 24.3803 	 42.082 	 
C 	 11.5114 	 23.9772 	 43.4172 	 
H 	 12.2305 	 23.3485 	 42.9351 	 
H 	 11.4983 	 23.5407 	 44.4263 	 
C 	 11.8303 	 25.4355 	 43.6134 	 
H 	 12.7403 	 25.598 	 44.1894 	 
H 	 10.9788 	 25.953 	 44.0548 	 
H 	 12.0616 	 25.9121 	 42.6321 	 
H 	 12.732 	 23.5915 	 37.4042 	 
H 	 7.64995 	 19.669 	 42.6229 	 
