34

S 	 0.866589 	 75.3163 	 47.1489 	 
C 	 2.04279 	 74.0583 	 47.1826 	 
C 	 3.3694 	 74.5645 	 47.3931 	 
C 	 3.37783 	 75.965 	 47.4417 	 
C 	 2.11423 	 76.5328 	 47.384 	 
H 	 4.20758 	 76.6867 	 47.5284 	 
C 	 4.64349 	 73.7929 	 47.6028 	 
H 	 5.32994 	 74.1497 	 46.8121 	 
H 	 4.38697 	 72.7697 	 47.4298 	 
C 	 5.19021 	 73.9652 	 49.1255 	 
H 	 6.23126 	 73.7319 	 49.2057 	 
H 	 5.32525 	 75.0361 	 49.331 	 
C 	 4.46148 	 73.2705 	 50.1922 	 
H 	 4.6308 	 73.7658 	 51.1534 	 
H 	 3.32991 	 73.3532 	 50.0432 	 
H 	 4.71795 	 72.1833 	 50.1807 	 
S 	 2.3962 	 78.7289 	 45.8828 	 
C 	 1.91758 	 80.2976 	 46.4826 	 
C 	 1.26918 	 80.2153 	 47.7319 	 
C 	 1.30536 	 78.8634 	 48.2074 	 
C 	 1.80171 	 77.9466 	 47.3026 	 
H 	 1.07731 	 81.1718 	 48.2309 	 
C 	 0.983527 	 78.4902 	 49.6959 	 
H 	 0.866377 	 77.4311 	 49.6429 	 
H 	 0.00318783 	 78.8388 	 49.9008 	 
C 	 2.00519 	 78.8672 	 50.8289 	 
H 	 1.55459 	 78.4579 	 51.74 	 
H 	 2.03438 	 79.969 	 51.0315 	 
C 	 3.44215 	 78.3599 	 50.6339 	 
H 	 3.92395 	 78.0158 	 51.6066 	 
H 	 3.9744 	 79.2317 	 50.2258 	 
H 	 3.4372 	 77.5308 	 49.8244 	 
H 	 1.77423 	 72.9551 	 47.2077 	 
H 	 1.86758 	 81.1857 	 45.8428 	 
