34

S 	 62.1016 	 -4.36732 	 92.324 	 
C 	 60.8304 	 -3.82006 	 93.4681 	 
C 	 60.7156 	 -2.42691 	 93.5999 	 
C 	 61.684 	 -1.8371 	 92.7791 	 
C 	 62.5308 	 -2.7111 	 92.0578 	 
H 	 61.835 	 -0.802106 	 92.6959 	 
C 	 59.8319 	 -1.57147 	 94.4806 	 
H 	 58.8742 	 -2.00165 	 94.6318 	 
H 	 59.5523 	 -0.572519 	 93.9777 	 
C 	 60.3845 	 -1.48793 	 95.9587 	 
H 	 59.9103 	 -0.725182 	 96.6213 	 
H 	 60.2628 	 -2.4637 	 96.4543 	 
C 	 61.8402 	 -1.07448 	 96.1595 	 
H 	 62.2088 	 -0.414439 	 95.4103 	 
H 	 62.0407 	 -0.548115 	 97.0834 	 
H 	 62.6229 	 -1.8379 	 95.9974 	 
S 	 65.0776 	 -3.61801 	 91.3615 	 
C 	 66.0438 	 -2.61848 	 90.4061 	 
C 	 65.4417 	 -1.40803 	 90.0454 	 
C 	 64.0994 	 -1.23956 	 90.5544 	 
C 	 63.762 	 -2.32294 	 91.3486 	 
H 	 65.8227 	 -0.774622 	 89.3356 	 
C 	 63.2254 	 -0.049417 	 90.1671 	 
H 	 62.1873 	 -0.403887 	 89.9597 	 
H 	 63.4403 	 0.131011 	 89.1043 	 
C 	 63.3478 	 1.2008 	 91.0192 	 
H 	 64.4658 	 1.31307 	 91.1401 	 
H 	 62.9859 	 1.12179 	 91.9971 	 
C 	 62.7592 	 2.35311 	 90.2328 	 
H 	 63.3542 	 2.7082 	 89.5123 	 
H 	 62.6775 	 3.32772 	 90.7819 	 
H 	 61.7729 	 1.99124 	 89.8074 	 
H 	 60.0968 	 -4.51329 	 93.9686 	 
H 	 67.0417 	 -2.81014 	 90.2034 	 
