34

S 	 9.75576 	 31.7503 	 58.6571 	 
C 	 11.3606 	 31.485 	 58.3811 	 
C 	 12.2489 	 32.4579 	 58.5575 	 
C 	 11.6194 	 33.5608 	 59.2493 	 
C 	 10.2208 	 33.3379 	 59.3212 	 
H 	 12.0652 	 34.4672 	 59.6767 	 
C 	 13.7494 	 32.4104 	 58.3114 	 
H 	 14.0674 	 33.3037 	 57.8022 	 
H 	 14.005 	 31.6398 	 57.5434 	 
C 	 14.4667 	 32.1827 	 59.6174 	 
H 	 14.3899 	 33.0202 	 60.3661 	 
H 	 14.1788 	 31.2124 	 60.0741 	 
C 	 15.9325 	 32.102 	 59.2674 	 
H 	 16.4545 	 33.0319 	 59.0513 	 
H 	 16.4188 	 31.6895 	 60.1407 	 
H 	 16.1655 	 31.4888 	 58.4785 	 
S 	 7.931 	 33.5849 	 60.8957 	 
C 	 7.12576 	 35.1175 	 61.1908 	 
C 	 7.90286 	 36.0586 	 60.5956 	 
C 	 9.01735 	 35.6586 	 59.7842 	 
C 	 9.21778 	 34.2595 	 59.8656 	 
H 	 7.59943 	 37.0873 	 60.737 	 
C 	 9.94525 	 36.6743 	 58.978 	 
H 	 10.6946 	 36.1479 	 58.4525 	 
H 	 10.5456 	 37.0961 	 59.742 	 
C 	 9.31633 	 37.8162 	 58.1608 	 
H 	 10.1166 	 38.5291 	 57.8805 	 
H 	 8.56026 	 38.4026 	 58.7628 	 
C 	 8.76287 	 37.2934 	 56.8628 	 
H 	 9.54633 	 36.8864 	 56.2055 	 
H 	 8.32411 	 38.0718 	 56.2731 	 
H 	 8.09527 	 36.4175 	 56.9636 	 
H 	 11.6862 	 30.5518 	 58.0241 	 
H 	 6.1782 	 35.4064 	 61.6511 	 
