34

S 	 -18.2915 	 -5.64194 	 82.9398 	 
C 	 -17.0492 	 -5.98637 	 81.7302 	 
C 	 -16.0402 	 -6.76123 	 82.2149 	 
C 	 -16.2992 	 -7.08095 	 83.6172 	 
C 	 -17.3087 	 -6.39992 	 84.2401 	 
H 	 -15.6029 	 -7.67039 	 84.2194 	 
C 	 -14.7379 	 -7.189 	 81.5614 	 
H 	 -14.0799 	 -7.16189 	 82.4198 	 
H 	 -14.3296 	 -6.34305 	 80.9404 	 
C 	 -14.7915 	 -8.55259 	 80.7945 	 
H 	 -15.0644 	 -9.3433 	 81.4228 	 
H 	 -15.584 	 -8.53109 	 80.0442 	 
C 	 -13.4446 	 -8.85853 	 80.1039 	 
H 	 -12.6009 	 -8.87672 	 80.8388 	 
H 	 -13.4855 	 -9.79783 	 79.4998 	 
H 	 -13.2544 	 -8.13332 	 79.3637 	 
S 	 -18.2834 	 -7.90979 	 86.2075 	 
C 	 -18.7669 	 -7.17687 	 87.665 	 
C 	 -18.3367 	 -5.86166 	 87.7451 	 
C 	 -17.8187 	 -5.37474 	 86.5195 	 
C 	 -17.7892 	 -6.36196 	 85.57 	 
H 	 -18.596 	 -5.20791 	 88.5754 	 
C 	 -17.3012 	 -3.92447 	 86.3517 	 
H 	 -18.1851 	 -3.33415 	 86.7038 	 
H 	 -17.2086 	 -3.7893 	 85.297 	 
C 	 -15.9724 	 -3.74614 	 87.0166 	 
H 	 -15.333 	 -4.38078 	 86.4556 	 
H 	 -15.9634 	 -4.05606 	 88.0715 	 
C 	 -15.4023 	 -2.33867 	 86.7575 	 
H 	 -14.3765 	 -2.30702 	 87.0834 	 
H 	 -15.8823 	 -1.54715 	 87.2601 	 
H 	 -15.5175 	 -2.10651 	 85.6685 	 
H 	 -16.9641 	 -5.52157 	 80.7364 	 
H 	 -19.1987 	 -7.72754 	 88.4144 	 
