34

S 	 -46.8117 	 49.4421 	 101.29 	 
C 	 -45.7312 	 50.6127 	 102.017 	 
C 	 -44.867 	 50.0373 	 102.92 	 
C 	 -44.9724 	 48.6513 	 102.853 	 
C 	 -46.0321 	 48.1912 	 102.148 	 
H 	 -44.5004 	 47.9767 	 103.557 	 
C 	 -43.9685 	 50.9188 	 103.797 	 
H 	 -43.6322 	 51.7396 	 103.158 	 
H 	 -43.0809 	 50.3576 	 104.165 	 
C 	 -44.7485 	 51.6162 	 104.883 	 
H 	 -45.7184 	 51.9312 	 104.467 	 
H 	 -44.8298 	 50.8474 	 105.7 	 
C 	 -44.1459 	 52.8382 	 105.459 	 
H 	 -43.2784 	 52.537 	 105.942 	 
H 	 -43.8981 	 53.5609 	 104.712 	 
H 	 -44.8473 	 53.2308 	 106.162 	 
S 	 -46.1989 	 46.0052 	 100.678 	 
C 	 -46.6205 	 44.4304 	 101.379 	 
C 	 -46.9163 	 44.6267 	 102.685 	 
C 	 -46.9726 	 45.9786 	 103.083 	 
C 	 -46.5316 	 46.8508 	 102.111 	 
H 	 -47.2274 	 43.8485 	 103.348 	 
C 	 -47.3443 	 46.4247 	 104.504 	 
H 	 -47.0237 	 47.4858 	 104.602 	 
H 	 -46.6985 	 45.821 	 105.153 	 
C 	 -48.7935 	 46.3552 	 104.966 	 
H 	 -49.1008 	 45.3497 	 104.936 	 
H 	 -49.4952 	 46.8778 	 104.263 	 
C 	 -48.9927 	 46.9263 	 106.401 	 
H 	 -48.7451 	 47.9472 	 106.369 	 
H 	 -48.4566 	 46.5313 	 107.253 	 
H 	 -50.0725 	 46.8465 	 106.611 	 
H 	 -45.727 	 51.7109 	 102 	 
H 	 -46.448 	 43.543 	 100.848 	 
