34

S 	 36.4017 	 30.8464 	 53.7464 	 
C 	 36.0227 	 32.4441 	 53.4788 	 
C 	 35.0046 	 32.8438 	 54.2766 	 
C 	 34.469 	 31.7542 	 55.0738 	 
C 	 35.0687 	 30.568 	 54.8043 	 
H 	 33.8322 	 31.9235 	 55.8954 	 
C 	 34.524 	 34.2519 	 54.4382 	 
H 	 35.3024 	 34.9511 	 54.4771 	 
H 	 33.9182 	 34.3271 	 55.289 	 
C 	 33.6916 	 34.7395 	 53.2365 	 
H 	 34.2386 	 34.863 	 52.28 	 
H 	 32.9619 	 33.9465 	 52.8868 	 
C 	 32.8432 	 36.0964 	 53.4661 	 
H 	 32.0273 	 36.0605 	 54.2449 	 
H 	 33.5475 	 36.9246 	 53.6141 	 
H 	 32.289 	 36.3673 	 52.5193 	 
S 	 33.1282 	 28.7447 	 55.419 	 
C 	 33.5286 	 27.4903 	 56.569 	 
C 	 34.8476 	 27.4672 	 56.9004 	 
C 	 35.6114 	 28.6238 	 56.5056 	 
C 	 34.8187 	 29.3785 	 55.599 	 
H 	 35.289 	 26.6994 	 57.4246 	 
C 	 37.065 	 28.8121 	 56.899 	 
H 	 37.5139 	 29.0241 	 55.9638 	 
H 	 37.4506 	 27.8197 	 57.178 	 
C 	 37.335 	 29.8135 	 58.004 	 
H 	 36.8737 	 29.5314 	 58.9736 	 
H 	 36.9705 	 30.8121 	 57.6548 	 
C 	 38.8995 	 29.8957 	 58.3318 	 
H 	 39.0044 	 30.5462 	 59.1359 	 
H 	 39.5601 	 30.1775 	 57.5435 	 
H 	 39.2457 	 28.9421 	 58.7256 	 
H 	 36.5139 	 33.0518 	 52.7333 	 
H 	 32.8099 	 26.7829 	 56.8023 	 
