34

S 	 -13.7599 	 74.6392 	 52.3906 	 
C 	 -13.3734 	 73.2291 	 51.4506 	 
C 	 -13.3337 	 72.035 	 52.2155 	 
C 	 -13.3389 	 72.3378 	 53.6483 	 
C 	 -13.484 	 73.6927 	 53.9106 	 
H 	 -13.2043 	 71.6542 	 54.4962 	 
C 	 -13.2453 	 70.6682 	 51.5859 	 
H 	 -13.7189 	 69.9005 	 52.2301 	 
H 	 -12.1545 	 70.3833 	 51.5303 	 
C 	 -13.8739 	 70.4132 	 50.2439 	 
H 	 -14.9886 	 70.6477 	 50.32 	 
H 	 -13.4682 	 71.1288 	 49.5265 	 
C 	 -13.9375 	 68.9522 	 49.7637 	 
H 	 -14.4371 	 68.3775 	 50.5585 	 
H 	 -14.501 	 68.8113 	 48.8737 	 
H 	 -12.942 	 68.5436 	 49.603 	 
S 	 -14.6498 	 75.329 	 55.8641 	 
C 	 -14.0597 	 75.351 	 57.432 	 
C 	 -12.8541 	 74.7397 	 57.5419 	 
C 	 -12.4995 	 74.0501 	 56.3114 	 
C 	 -13.3904 	 74.2292 	 55.2694 	 
H 	 -12.3574 	 74.6772 	 58.5055 	 
C 	 -11.1608 	 73.3203 	 56.2548 	 
H 	 -11.356 	 72.3847 	 55.8969 	 
H 	 -10.6787 	 73.1973 	 57.3009 	 
C 	 -10.2433 	 73.9506 	 55.2952 	 
H 	 -9.99791 	 74.9909 	 55.6336 	 
H 	 -10.7292 	 74.1717 	 54.3087 	 
C 	 -8.94854 	 73.2409 	 55.0664 	 
H 	 -8.53389 	 73.0125 	 56.0411 	 
H 	 -8.20309 	 73.6434 	 54.4313 	 
H 	 -9.10913 	 72.2778 	 54.5735 	 
H 	 -13.2871 	 73.2891 	 50.3294 	 
H 	 -14.5792 	 75.7906 	 58.1938 	 
