34

S 	 3.51703 	 -27.6359 	 79.6939 	 
C 	 2.49651 	 -29.0602 	 79.9379 	 
C 	 3.30163 	 -30.1645 	 79.762 	 
C 	 4.65223 	 -29.9367 	 79.4544 	 
C 	 4.94259 	 -28.5812 	 79.2456 	 
H 	 5.37869 	 -30.783 	 79.2951 	 
C 	 2.83618 	 -31.628 	 80.0865 	 
H 	 3.10955 	 -32.173 	 79.2094 	 
H 	 1.80502 	 -31.5477 	 80.1615 	 
C 	 3.52153 	 -32.35 	 81.2795 	 
H 	 3.07938 	 -33.3532 	 81.282 	 
H 	 4.62699 	 -32.494 	 81.1898 	 
C 	 3.19764 	 -31.7059 	 82.69 	 
H 	 3.05278 	 -32.5373 	 83.4784 	 
H 	 3.97018 	 -30.9426 	 83.0835 	 
H 	 2.20134 	 -31.2538 	 82.6844 	 
S 	 6.62261 	 -26.3508 	 79.5707 	 
C 	 8.13359 	 -26.2527 	 78.6656 	 
C 	 8.28891 	 -27.3351 	 77.8961 	 
C 	 7.12781 	 -28.2329 	 77.8378 	 
C 	 6.15627 	 -27.9345 	 78.846 	 
H 	 9.26943 	 -27.4022 	 77.4103 	 
C 	 7.05518 	 -29.512 	 77.0238 	 
H 	 7.28451 	 -29.0224 	 76.0491 	 
H 	 6.01893 	 -29.8304 	 76.9881 	 
C 	 7.95665 	 -30.7015 	 77.4031 	 
H 	 7.74865 	 -31.5616 	 76.8117 	 
H 	 7.71047 	 -30.9507 	 78.3991 	 
C 	 9.48263 	 -30.4533 	 77.2579 	 
H 	 9.82793 	 -29.9653 	 76.404 	 
H 	 10.061 	 -31.3847 	 77.3318 	 
H 	 9.79134 	 -29.8175 	 78.1162 	 
H 	 1.43179 	 -29.1175 	 80.2342 	 
H 	 8.78955 	 -25.3847 	 78.7789 	 
