34

S 	 -58.5373 	 56.8169 	 137.336 	 
C 	 -57.1839 	 56.9796 	 138.404 	 
C 	 -56.9994 	 55.7741 	 139.077 	 
C 	 -58.1083 	 54.8907 	 138.91 	 
C 	 -58.9655 	 55.2042 	 137.901 	 
H 	 -58.2842 	 53.8526 	 139.269 	 
C 	 -55.7622 	 55.443 	 139.969 	 
H 	 -54.8875 	 55.4362 	 139.334 	 
H 	 -55.8448 	 54.4073 	 140.201 	 
C 	 -55.519 	 56.341 	 141.179 	 
H 	 -55.1826 	 57.2475 	 140.711 	 
H 	 -56.4676 	 56.5557 	 141.714 	 
C 	 -54.5645 	 55.8575 	 142.211 	 
H 	 -54.9718 	 55.0279 	 142.748 	 
H 	 -53.6413 	 55.5151 	 141.72 	 
H 	 -54.2773 	 56.6244 	 143.025 	 
S 	 -60.4294 	 55.0022 	 135.564 	 
C 	 -61.5902 	 53.7089 	 135.444 	 
C 	 -61.7621 	 53.0097 	 136.595 	 
C 	 -60.8457 	 53.3481 	 137.646 	 
C 	 -60.0462 	 54.4398 	 137.271 	 
H 	 -62.3694 	 52.1136 	 136.638 	 
C 	 -60.7669 	 52.7385 	 138.954 	 
H 	 -61.7263 	 52.588 	 139.425 	 
H 	 -60.1694 	 53.3963 	 139.625 	 
C 	 -60.0945 	 51.3843 	 139.008 	 
H 	 -59.9099 	 51.1072 	 140.001 	 
H 	 -59.0492 	 51.4948 	 138.565 	 
C 	 -60.9346 	 50.2343 	 138.335 	 
H 	 -60.8075 	 50.2818 	 137.253 	 
H 	 -61.9825 	 50.1007 	 138.618 	 
H 	 -60.4359 	 49.3411 	 138.774 	 
H 	 -56.4176 	 57.7988 	 138.382 	 
H 	 -62.1466 	 53.4962 	 134.575 	 
