34

S 	 -8.10774 	 50.7967 	 43.3022 	 
C 	 -9.46588 	 50.8471 	 44.3549 	 
C 	 -10.1735 	 49.6965 	 44.282 	 
C 	 -9.61582 	 48.8174 	 43.2772 	 
C 	 -8.52485 	 49.2994 	 42.5572 	 
H 	 -10.1488 	 47.9011 	 43.0701 	 
C 	 -11.4015 	 49.3507 	 45.1072 	 
H 	 -12.1391 	 49.139 	 44.3103 	 
H 	 -11.8296 	 50.2258 	 45.6117 	 
C 	 -11.3553 	 48.1232 	 46.0075 	 
H 	 -12.3786 	 47.6474 	 46.1365 	 
H 	 -10.782 	 47.3821 	 45.4065 	 
C 	 -10.7053 	 48.2694 	 47.4026 	 
H 	 -9.63575 	 48.5887 	 47.2682 	 
H 	 -11.3351 	 48.9655 	 48.033 	 
H 	 -10.6715 	 47.2904 	 47.9732 	 
S 	 -7.28032 	 49.4455 	 40.0935 	 
C 	 -6.59026 	 48.0668 	 39.3376 	 
C 	 -6.76353 	 47.0167 	 40.1392 	 
C 	 -7.45522 	 47.2288 	 41.4039 	 
C 	 -7.69232 	 48.5977 	 41.5566 	 
H 	 -6.33145 	 46.058 	 39.7657 	 
C 	 -7.80075 	 46.0917 	 42.4466 	 
H 	 -7.45588 	 45.2269 	 41.9595 	 
H 	 -8.86266 	 45.8594 	 42.4237 	 
C 	 -7.22525 	 46.324 	 43.769 	 
H 	 -7.52597 	 47.2832 	 44.1842 	 
H 	 -6.10491 	 46.493 	 43.6815 	 
C 	 -7.43647 	 45.1349 	 44.5719 	 
H 	 -7.25764 	 44.2538 	 43.9782 	 
H 	 -8.45576 	 45.1098 	 44.9955 	 
H 	 -6.81267 	 45.085 	 45.4753 	 
H 	 -9.84644 	 51.6658 	 44.9569 	 
H 	 -6.00292 	 48.0208 	 38.4378 	 
