34

S 	 -21.5877 	 35.5278 	 36.8403 	 
C 	 -22.5264 	 34.0527 	 36.6748 	 
C 	 -21.8044 	 32.8862 	 36.9117 	 
C 	 -20.4524 	 33.2139 	 37.2481 	 
C 	 -20.1925 	 34.5536 	 37.2428 	 
H 	 -19.5655 	 32.602 	 37.5134 	 
C 	 -22.3095 	 31.4767 	 36.9709 	 
H 	 -21.6866 	 30.7525 	 36.345 	 
H 	 -23.2876 	 31.4407 	 36.5559 	 
C 	 -22.3279 	 30.9371 	 38.4531 	 
H 	 -23.0765 	 30.2043 	 38.5028 	 
H 	 -21.3848 	 30.3468 	 38.5089 	 
C 	 -22.7863 	 31.8247 	 39.5839 	 
H 	 -22.1173 	 32.6618 	 39.8666 	 
H 	 -23.7528 	 32.1681 	 39.2235 	 
H 	 -23.0081 	 31.3756 	 40.5144 	 
S 	 -18.0813 	 34.5125 	 39.0426 	 
C 	 -16.688 	 35.3895 	 38.6259 	 
C 	 -16.815 	 36.0962 	 37.4847 	 
C 	 -18.1148 	 36.1516 	 37.0714 	 
C 	 -18.9424 	 35.1294 	 37.6099 	 
H 	 -15.9935 	 36.6856 	 37.1039 	 
C 	 -18.5734 	 37.0199 	 35.9142 	 
H 	 -17.9052 	 37.8489 	 35.8632 	 
H 	 -19.6028 	 37.35 	 36.1027 	 
C 	 -18.5416 	 36.2926 	 34.554 	 
H 	 -19.3679 	 36.8267 	 34.0163 	 
H 	 -18.8292 	 35.2443 	 34.5641 	 
C 	 -17.1656 	 36.296 	 33.8983 	 
H 	 -17.3268 	 35.8959 	 32.8964 	 
H 	 -16.4213 	 35.6563 	 34.4645 	 
H 	 -16.5835 	 37.2735 	 33.7546 	 
H 	 -23.5643 	 34.0783 	 36.496 	 
H 	 -15.797 	 35.3557 	 39.2543 	 
