34

S 	 60.7574 	 4.31581 	 78.3022 	 
C 	 61.11 	 5.63455 	 79.4717 	 
C 	 60.7797 	 6.86748 	 79.0229 	 
C 	 60.3546 	 6.76261 	 77.6496 	 
C 	 60.4079 	 5.50072 	 77.0504 	 
H 	 59.9641 	 7.63134 	 77.0839 	 
C 	 60.8996 	 8.1959 	 79.7428 	 
H 	 61.9653 	 8.53921 	 79.6023 	 
H 	 60.7929 	 7.96894 	 80.7579 	 
C 	 59.9806 	 9.34498 	 79.2479 	 
H 	 60.2199 	 9.592 	 78.2456 	 
H 	 58.8647 	 8.99489 	 79.2292 	 
C 	 59.9838 	 10.7145 	 79.9788 	 
H 	 59.8692 	 10.47 	 81.0312 	 
H 	 60.8895 	 11.2755 	 79.785 	 
H 	 59.0948 	 11.3112 	 79.6915 	 
S 	 59.0777 	 3.77605 	 75.4894 	 
C 	 59.2211 	 3.86888 	 73.7099 	 
C 	 60.0638 	 4.86324 	 73.3232 	 
C 	 60.4487 	 5.71545 	 74.4229 	 
C 	 60.075 	 5.22458 	 75.6784 	 
H 	 60.4969 	 4.92787 	 72.3284 	 
C 	 61.4995 	 6.79336 	 74.2716 	 
H 	 62.4755 	 6.37796 	 74.5299 	 
H 	 61.188 	 7.50686 	 75.0144 	 
C 	 61.657 	 7.47805 	 72.9262 	 
H 	 60.8222 	 8.08632 	 72.6646 	 
H 	 61.9503 	 6.79984 	 72.1568 	 
C 	 62.7287 	 8.66063 	 72.9424 	 
H 	 63.6998 	 8.32655 	 73.3611 	 
H 	 62.4211 	 9.57186 	 73.4891 	 
H 	 62.7527 	 9.01873 	 71.9193 	 
H 	 61.5921 	 5.5368 	 80.4569 	 
H 	 58.7046 	 3.17438 	 73.0819 	 
