34

S 	 -41.2598 	 26.8088 	 87.6297 	 
C 	 -41.2214 	 28.16 	 88.8201 	 
C 	 -42.4357 	 28.817 	 88.8324 	 
C 	 -43.2972 	 28.3928 	 87.7891 	 
C 	 -42.83 	 27.3481 	 87.0142 	 
H 	 -44.2543 	 28.7734 	 87.5154 	 
C 	 -42.7837 	 30.0101 	 89.6805 	 
H 	 -42.0894 	 30.8326 	 89.5239 	 
H 	 -42.7475 	 29.8026 	 90.7365 	 
C 	 -44.179 	 30.6014 	 89.4039 	 
H 	 -44.1549 	 30.8477 	 88.3823 	 
H 	 -45.0263 	 29.8695 	 89.7178 	 
C 	 -44.2295 	 31.8958 	 90.1454 	 
H 	 -44.2686 	 31.7023 	 91.1882 	 
H 	 -43.4051 	 32.6224 	 89.8765 	 
H 	 -45.1389 	 32.4729 	 89.8791 	 
S 	 -44.8666 	 25.591 	 86.3014 	 
C 	 -44.9084 	 24.9451 	 84.6391 	 
C 	 -43.9235 	 25.5145 	 83.9222 	 
C 	 -43.0824 	 26.4442 	 84.6712 	 
C 	 -43.5772 	 26.6961 	 85.948 	 
H 	 -43.7652 	 25.2666 	 82.888 	 
C 	 -41.9895 	 27.2256 	 83.9629 	 
H 	 -41.6219 	 26.702 	 83.0908 	 
H 	 -41.15 	 27.1753 	 84.7162 	 
C 	 -42.2249 	 28.725 	 83.5387 	 
H 	 -41.4107 	 29.0284 	 82.9077 	 
H 	 -42.2627 	 29.3651 	 84.4013 	 
C 	 -43.4422 	 29.0093 	 82.6672 	 
H 	 -43.6051 	 28.3213 	 81.8538 	 
H 	 -43.5003 	 30.0366 	 82.2511 	 
H 	 -44.221 	 28.7981 	 83.4158 	 
H 	 -40.5603 	 28.2812 	 89.6179 	 
H 	 -45.4261 	 24.0554 	 84.2277 	 
