34

S 	 54.2459 	 21.3406 	 91.9521 	 
C 	 52.7515 	 21.9233 	 91.1574 	 
C 	 51.868 	 20.8459 	 90.8753 	 
C 	 52.5882 	 19.6257 	 91.0842 	 
C 	 53.9101 	 19.7076 	 91.4037 	 
H 	 52.2045 	 18.6644 	 90.7576 	 
C 	 50.3922 	 20.8116 	 90.5554 	 
H 	 49.9624 	 19.8084 	 90.439 	 
H 	 50.2146 	 21.3568 	 89.5729 	 
C 	 49.3908 	 21.6012 	 91.4641 	 
H 	 49.6332 	 21.3969 	 92.5069 	 
H 	 49.4742 	 22.7237 	 91.4377 	 
C 	 47.9463 	 21.3967 	 91.0396 	 
H 	 47.2715 	 21.9333 	 91.7203 	 
H 	 47.9184 	 21.7024 	 89.9752 	 
H 	 47.7185 	 20.3571 	 91.0719 	 
S 	 54.9017 	 18.0094 	 93.2714 	 
C 	 55.6804 	 16.5625 	 92.7476 	 
C 	 55.756 	 16.5398 	 91.341 	 
C 	 55.2019 	 17.6475 	 90.7348 	 
C 	 54.6917 	 18.5162 	 91.652 	 
H 	 56.3204 	 15.73 	 90.7489 	 
C 	 55.1021 	 17.8381 	 89.2605 	 
H 	 55.6961 	 18.8134 	 89.1704 	 
H 	 54.0649 	 18.027 	 89.0114 	 
C 	 55.626 	 16.6926 	 88.305 	 
H 	 55.051 	 15.801 	 88.4427 	 
H 	 56.6704 	 16.4426 	 88.5477 	 
C 	 55.4753 	 17.1257 	 86.8487 	 
H 	 56.0882 	 16.4714 	 86.272 	 
H 	 55.7706 	 18.2088 	 86.608 	 
H 	 54.4699 	 17.088 	 86.5392 	 
H 	 52.4907 	 22.9328 	 91.2465 	 
H 	 56.0642 	 15.7307 	 93.3125 	 
