34

S 	 -24.5499 	 -3.47075 	 86.9866 	 
C 	 -25.6488 	 -2.34664 	 87.8441 	 
C 	 -25.9665 	 -1.24522 	 87.0513 	 
C 	 -25.1674 	 -1.20997 	 85.8767 	 
C 	 -24.4035 	 -2.32722 	 85.6995 	 
H 	 -25.2724 	 -0.477749 	 85.0025 	 
C 	 -26.8466 	 -0.0756328 	 87.5099 	 
H 	 -26.8194 	 0.635523 	 86.672 	 
H 	 -26.4223 	 0.369343 	 88.3938 	 
C 	 -28.3295 	 -0.345225 	 87.7661 	 
H 	 -28.6117 	 -0.830408 	 88.7402 	 
H 	 -28.7736 	 0.602105 	 87.8553 	 
C 	 -29.0309 	 -1.15628 	 86.72 	 
H 	 -28.7098 	 -2.12912 	 86.5431 	 
H 	 -30.0911 	 -1.36908 	 86.9308 	 
H 	 -29.0053 	 -0.579793 	 85.7201 	 
S 	 -21.7858 	 -2.72116 	 84.8776 	 
C 	 -21.3535 	 -2.69545 	 83.2698 	 
C 	 -22.472 	 -2.4174 	 82.4814 	 
C 	 -23.696 	 -2.2446 	 83.1437 	 
C 	 -23.5159 	 -2.47182 	 84.5694 	 
H 	 -22.2074 	 -2.34834 	 81.4152 	 
C 	 -25.0483 	 -2.07717 	 82.4067 	 
H 	 -25.835 	 -2.35291 	 83.1052 	 
H 	 -25.1277 	 -2.85823 	 81.641 	 
C 	 -25.4128 	 -0.781141 	 81.7201 	 
H 	 -24.6504 	 -0.427959 	 81.0597 	 
H 	 -25.4364 	 0.0166983 	 82.5006 	 
C 	 -26.8075 	 -0.787289 	 81.1348 	 
H 	 -27.6032 	 -1.02261 	 81.9271 	 
H 	 -26.8618 	 -1.43489 	 80.262 	 
H 	 -26.993 	 0.226155 	 80.8009 	 
H 	 -25.9647 	 -2.55907 	 88.8335 	 
H 	 -20.4448 	 -2.99138 	 82.8145 	 
