34

S 	 -71.4548 	 34.1609 	 116.441 	 
C 	 -71.5106 	 34.4782 	 118.157 	 
C 	 -70.3147 	 34.8713 	 118.652 	 
C 	 -69.3344 	 35.0227 	 117.599 	 
C 	 -69.8402 	 34.7957 	 116.365 	 
H 	 -68.2814 	 35.2489 	 117.637 	 
C 	 -70.0131 	 35.1298 	 120.097 	 
H 	 -69.0224 	 34.7698 	 120.385 	 
H 	 -70.7713 	 34.5219 	 120.614 	 
C 	 -70.0548 	 36.5975 	 120.431 	 
H 	 -69.2746 	 37.0919 	 119.948 	 
H 	 -70.9968 	 37.058 	 120.089 	 
C 	 -69.8679 	 37.0459 	 121.883 	 
H 	 -70.6532 	 36.6624 	 122.57 	 
H 	 -68.9304 	 36.7232 	 122.389 	 
H 	 -69.9254 	 38.1565 	 121.94 	 
S 	 -69.0331 	 33.2552 	 114.415 	 
C 	 -68.0575 	 33.9441 	 113.122 	 
C 	 -67.5592 	 35.2265 	 113.404 	 
C 	 -68.1413 	 35.7946 	 114.583 	 
C 	 -69.062 	 34.8683 	 115.148 	 
H 	 -66.898 	 35.6934 	 112.749 	 
C 	 -67.848 	 37.1432 	 115.144 	 
H 	 -67.0332 	 37.7262 	 114.698 	 
H 	 -67.5821 	 36.9393 	 116.154 	 
C 	 -69.1055 	 38.0718 	 115.113 	 
H 	 -69.9475 	 37.4841 	 115.29 	 
H 	 -69.2579 	 38.2949 	 114.012 	 
C 	 -69.0542 	 39.4389 	 115.79 	 
H 	 -70.0491 	 39.9809 	 115.507 	 
H 	 -68.1929 	 39.9912 	 115.458 	 
H 	 -69.0491 	 39.3137 	 116.904 	 
H 	 -72.4333 	 34.2077 	 118.767 	 
H 	 -67.8439 	 33.4219 	 112.259 	 
