34

S 	 29.9804 	 -5.39752 	 79.6098 	 
C 	 31.1475 	 -4.17369 	 79.0254 	 
C 	 30.6156 	 -2.91628 	 79.044 	 
C 	 29.2457 	 -2.93269 	 79.4736 	 
C 	 28.7231 	 -4.17171 	 79.7823 	 
H 	 28.5672 	 -2.06321 	 79.5345 	 
C 	 31.3632 	 -1.67032 	 78.7297 	 
H 	 30.5949 	 -0.905251 	 78.5704 	 
H 	 31.8756 	 -1.90264 	 77.7119 	 
C 	 32.4461 	 -1.21539 	 79.7349 	 
H 	 33.1693 	 -2.00044 	 79.8271 	 
H 	 32.9979 	 -0.401739 	 79.413 	 
C 	 31.9971 	 -0.701735 	 81.0781 	 
H 	 32.8197 	 -0.315323 	 81.7416 	 
H 	 31.2262 	 0.131958 	 80.9585 	 
H 	 31.4995 	 -1.54198 	 81.6311 	 
S 	 26.7405 	 -5.96096 	 78.8145 	 
C 	 25.2391 	 -5.93031 	 79.5785 	 
C 	 25.094 	 -4.90086 	 80.4804 	 
C 	 26.2974 	 -4.19429 	 80.7222 	 
C 	 27.3158 	 -4.64924 	 79.9389 	 
H 	 24.0755 	 -4.63833 	 80.9071 	 
C 	 26.2991 	 -2.98187 	 81.5996 	 
H 	 25.22 	 -2.81545 	 81.7328 	 
H 	 26.7473 	 -2.11349 	 81.1263 	 
C 	 26.9192 	 -3.1886 	 82.9564 	 
H 	 26.9921 	 -2.28124 	 83.5353 	 
H 	 27.916 	 -3.51604 	 82.7931 	 
C 	 26.1708 	 -4.14944 	 83.8139 	 
H 	 26.2586 	 -5.18286 	 83.5461 	 
H 	 25.1112 	 -4.03465 	 83.8483 	 
H 	 26.7103 	 -4.10262 	 84.7307 	 
H 	 32.1384 	 -4.41767 	 78.7061 	 
H 	 24.462 	 -6.67285 	 79.4101 	 
