34

S 	 49.2453 	 29.3522 	 43.3316 	 
C 	 50.9988 	 29.6934 	 43.3519 	 
C 	 51.7056 	 28.5548 	 43.5697 	 
C 	 50.8582 	 27.3765 	 43.6284 	 
C 	 49.5108 	 27.5905 	 43.4163 	 
H 	 51.1235 	 26.3694 	 43.9366 	 
C 	 53.188 	 28.5678 	 43.7942 	 
H 	 53.7336 	 28.912 	 42.8755 	 
H 	 53.634 	 27.6048 	 44.1758 	 
C 	 53.5433 	 29.5786 	 44.9731 	 
H 	 53.4068 	 30.6052 	 44.4756 	 
H 	 52.8838 	 29.5486 	 45.8164 	 
C 	 55.0359 	 29.393 	 45.3322 	 
H 	 55.2274 	 28.469 	 45.8021 	 
H 	 55.6966 	 29.5332 	 44.5014 	 
H 	 55.2731 	 30.2798 	 45.9837 	 
S 	 47.0107 	 27.0255 	 44.4679 	 
C 	 46.048 	 25.663 	 43.9581 	 
C 	 46.7702 	 24.925 	 43.0696 	 
C 	 48.1022 	 25.3909 	 42.7814 	 
C 	 48.3889 	 26.6126 	 43.4396 	 
H 	 46.3044 	 23.9881 	 42.7418 	 
C 	 48.9987 	 24.7322 	 41.7616 	 
H 	 49.7865 	 25.4716 	 41.475 	 
H 	 48.4616 	 24.6752 	 40.8346 	 
C 	 49.5588 	 23.2968 	 42.0249 	 
H 	 48.8013 	 22.5989 	 42.1811 	 
H 	 50.1027 	 23.2632 	 43.0089 	 
C 	 50.5807 	 22.8814 	 40.9185 	 
H 	 50.552 	 21.7946 	 40.7072 	 
H 	 51.5808 	 23.3166 	 41.074 	 
H 	 50.1615 	 23.1903 	 39.9656 	 
H 	 51.4252 	 30.7093 	 43.337 	 
H 	 45.0648 	 25.3266 	 44.2317 	 
