34

S 	 -95.5288 	 53.7405 	 125.857 	 
C 	 -94.4962 	 52.4506 	 126.463 	 
C 	 -95.0993 	 51.2381 	 126.344 	 
C 	 -96.5072 	 51.374 	 125.988 	 
C 	 -96.931 	 52.6865 	 125.639 	 
H 	 -97.293 	 50.6868 	 126.012 	 
C 	 -94.5468 	 49.9093 	 126.835 	 
H 	 -95.3219 	 49.1676 	 127.133 	 
H 	 -94.0455 	 50.1523 	 127.762 	 
C 	 -93.48 	 49.1845 	 125.969 	 
H 	 -92.8587 	 49.9963 	 125.663 	 
H 	 -92.8752 	 48.4265 	 126.538 	 
C 	 -93.9901 	 48.4765 	 124.738 	 
H 	 -94.6059 	 47.6201 	 124.995 	 
H 	 -94.7658 	 48.9823 	 124.077 	 
H 	 -93.1608 	 48.0459 	 124.186 	 
S 	 -98.8893 	 54.5171 	 126.073 	 
C 	 -100.322 	 54.5204 	 125.101 	 
C 	 -100.326 	 53.5012 	 124.189 	 
C 	 -99.1964 	 52.6461 	 124.394 	 
C 	 -98.2571 	 53.1301 	 125.274 	 
H 	 -101.063 	 53.3828 	 123.424 	 
C 	 -99.0103 	 51.3718 	 123.617 	 
H 	 -98.1023 	 50.8625 	 123.975 	 
H 	 -98.5999 	 51.6194 	 122.613 	 
C 	 -100.145 	 50.4109 	 123.554 	 
H 	 -100.949 	 50.7899 	 122.918 	 
H 	 -100.395 	 50.1891 	 124.538 	 
C 	 -99.701 	 49.0739 	 122.923 	 
H 	 -98.9785 	 48.6301 	 123.545 	 
H 	 -99.1568 	 49.1202 	 122.015 	 
H 	 -100.576 	 48.3861 	 122.869 	 
H 	 -93.4576 	 52.5558 	 126.764 	 
H 	 -100.967 	 55.3226 	 125.168 	 
