34

S 	 -54.759 	 28.1969 	 93.073 	 
C 	 -54.3202 	 26.7244 	 94.0315 	 
C 	 -53.752 	 25.7422 	 93.1948 	 
C 	 -53.594 	 26.2487 	 91.8524 	 
C 	 -54.0062 	 27.5239 	 91.6001 	 
H 	 -53.05 	 25.716 	 91.0468 	 
C 	 -53.2114 	 24.3655 	 93.5448 	 
H 	 -53.1712 	 24.3126 	 94.6947 	 
H 	 -52.1919 	 24.1575 	 93.2314 	 
C 	 -54.0906 	 23.2768 	 92.8713 	 
H 	 -54.106 	 23.3906 	 91.7923 	 
H 	 -53.7263 	 22.2683 	 92.9341 	 
C 	 -55.5545 	 23.1089 	 93.3315 	 
H 	 -55.5781 	 22.7431 	 94.3178 	 
H 	 -56.1139 	 24.0139 	 93.1188 	 
H 	 -55.9583 	 22.46 	 92.6862 	 
S 	 -52.4198 	 28.312 	 89.5728 	 
C 	 -52.9076 	 29.5864 	 88.4366 	 
C 	 -54.1785 	 29.9598 	 88.7583 	 
C 	 -54.7955 	 29.1864 	 89.7711 	 
C 	 -53.9492 	 28.2613 	 90.3681 	 
H 	 -54.739 	 30.5905 	 88.1141 	 
C 	 -56.2809 	 29.4204 	 90.1372 	 
H 	 -56.3688 	 28.8306 	 91.0697 	 
H 	 -56.9624 	 28.9138 	 89.4073 	 
C 	 -56.6584 	 30.8648 	 90.4527 	 
H 	 -56.5132 	 31.5849 	 89.6767 	 
H 	 -55.9346 	 31.1423 	 91.2131 	 
C 	 -58.111 	 30.9755 	 90.8914 	 
H 	 -58.4885 	 30.0674 	 91.3215 	 
H 	 -58.6097 	 31.2291 	 89.9137 	 
H 	 -58.3711 	 31.7449 	 91.6056 	 
H 	 -54.3089 	 26.6777 	 95.1256 	 
H 	 -52.2433 	 30.1735 	 87.7459 	 
