34

S 	 60.7713 	 -2.86866 	 89.7915 	 
C 	 60.4365 	 -2.20459 	 91.3363 	 
C 	 61.4606 	 -1.33846 	 91.7711 	 
C 	 62.6112 	 -1.3796 	 90.9391 	 
C 	 62.3022 	 -1.96762 	 89.7311 	 
H 	 63.5344 	 -0.889305 	 91.1102 	 
C 	 61.3604 	 -0.740487 	 93.2119 	 
H 	 60.6291 	 0.0822609 	 93.2464 	 
H 	 62.2905 	 -0.188165 	 93.3344 	 
C 	 61.3378 	 -1.58306 	 94.3904 	 
H 	 61.4804 	 -0.94488 	 95.26 	 
H 	 60.3602 	 -2.0353 	 94.5033 	 
C 	 62.4109 	 -2.6453 	 94.3778 	 
H 	 63.3673 	 -2.2892 	 94.1144 	 
H 	 62.4076 	 -3.10074 	 95.3835 	 
H 	 62.0685 	 -3.42646 	 93.6511 	 
S 	 63.8389 	 -3.72508 	 88.3214 	 
C 	 65.0083 	 -3.00917 	 87.2003 	 
C 	 64.9994 	 -1.64229 	 87.2464 	 
C 	 63.9619 	 -1.08627 	 88.0311 	 
C 	 63.219 	 -2.07405 	 88.62 	 
H 	 65.8175 	 -1.21746 	 86.7306 	 
C 	 63.6777 	 0.414255 	 87.9567 	 
H 	 64.1877 	 0.957585 	 88.7442 	 
H 	 62.6579 	 0.326469 	 88.3048 	 
C 	 63.8942 	 1.07417 	 86.6803 	 
H 	 63.4996 	 0.541198 	 85.8282 	 
H 	 64.878 	 1.1292 	 86.3874 	 
C 	 63.4413 	 2.54456 	 86.6826 	 
H 	 62.3436 	 2.6187 	 86.625 	 
H 	 63.8899 	 3.23557 	 86.0023 	 
H 	 63.9013 	 2.86157 	 87.6267 	 
H 	 59.4017 	 -2.16289 	 91.7354 	 
H 	 65.6874 	 -3.48427 	 86.5408 	 
