34

S 	 -42.5413 	 64.297 	 139.936 	 
C 	 -41.7678 	 62.8241 	 140.502 	 
C 	 -41.9676 	 61.807 	 139.592 	 
C 	 -42.8664 	 62.1271 	 138.532 	 
C 	 -43.2145 	 63.4542 	 138.61 	 
H 	 -43.2417 	 61.5188 	 137.767 	 
C 	 -41.4793 	 60.3937 	 139.664 	 
H 	 -40.4004 	 60.3338 	 139.928 	 
H 	 -41.4629 	 60.1017 	 138.586 	 
C 	 -42.3962 	 59.4356 	 140.479 	 
H 	 -42.1847 	 59.6008 	 141.569 	 
H 	 -43.4398 	 59.8194 	 140.447 	 
C 	 -42.3502 	 57.9516 	 140.091 	 
H 	 -43.0101 	 57.355 	 140.727 	 
H 	 -42.6884 	 57.8217 	 139.026 	 
H 	 -41.3432 	 57.5392 	 140.173 	 
S 	 -45.4198 	 65.058 	 138.09 	 
C 	 -45.8671 	 65.4513 	 136.533 	 
C 	 -45.0841 	 64.8641 	 135.574 	 
C 	 -43.9903 	 64.0844 	 136.188 	 
C 	 -43.9936 	 64.1474 	 137.581 	 
H 	 -45.329 	 64.9843 	 134.57 	 
C 	 -43.0227 	 63.4445 	 135.265 	 
H 	 -42.1063 	 63.1407 	 135.899 	 
H 	 -42.7173 	 64.201 	 134.573 	 
C 	 -43.5302 	 62.1764 	 134.523 	 
H 	 -44.4662 	 62.3953 	 133.953 	 
H 	 -43.7819 	 61.5167 	 135.286 	 
C 	 -42.4558 	 61.627 	 133.52 	 
H 	 -42.2322 	 62.2524 	 132.609 	 
H 	 -42.6553 	 60.5983 	 133.262 	 
H 	 -41.3948 	 61.6336 	 133.844 	 
H 	 -41.1627 	 62.8582 	 141.432 	 
H 	 -46.7973 	 66.0929 	 136.34 	 
