34

S 	 -40.0692 	 0.578695 	 99.0215 	 
C 	 -38.383 	 0.257389 	 99.2812 	 
C 	 -37.6943 	 0.218288 	 98.0199 	 
C 	 -38.6641 	 0.301413 	 96.9204 	 
C 	 -39.9861 	 0.386961 	 97.2816 	 
H 	 -38.4315 	 0.351902 	 95.8712 	 
C 	 -36.2222 	 -0.113134 	 97.7305 	 
H 	 -35.4465 	 0.275349 	 98.4357 	 
H 	 -35.9817 	 0.522044 	 96.8725 	 
C 	 -36.0087 	 -1.63495 	 97.5167 	 
H 	 -36.3488 	 -2.16158 	 98.4167 	 
H 	 -36.6687 	 -1.89088 	 96.7122 	 
C 	 -34.6249 	 -2.07805 	 97.2293 	 
H 	 -33.987 	 -1.62961 	 97.9951 	 
H 	 -34.5535 	 -3.13131 	 97.2841 	 
H 	 -34.2465 	 -1.59184 	 96.3169 	 
S 	 -41.9712 	 2.09569 	 96.5906 	 
C 	 -43.1582 	 1.65024 	 95.3828 	 
C 	 -42.9523 	 0.368717 	 94.8588 	 
C 	 -41.7261 	 -0.159102 	 95.4102 	 
C 	 -41.1615 	 0.595587 	 96.4058 	 
H 	 -43.6418 	 0.00230166 	 94.1501 	 
C 	 -41.3214 	 -1.64316 	 94.9897 	 
H 	 -40.4609 	 -1.64101 	 94.3034 	 
H 	 -42.0403 	 -1.8463 	 94.16 	 
C 	 -41.3291 	 -2.7267 	 96.0003 	 
H 	 -42.1106 	 -2.55252 	 96.6603 	 
H 	 -40.3127 	 -2.69669 	 96.6449 	 
C 	 -41.5151 	 -4.10514 	 95.2808 	 
H 	 -40.6595 	 -4.13852 	 94.5678 	 
H 	 -42.4311 	 -4.37714 	 94.7648 	 
H 	 -41.3267 	 -4.86693 	 95.9317 	 
H 	 -37.9841 	 0.163523 	 100.275 	 
H 	 -43.9815 	 2.36089 	 95.0749 	 
