34

S 	 2.53733 	 -12.6255 	 57.4407 	 
C 	 3.55577 	 -12.5177 	 58.7256 	 
C 	 3.71232 	 -13.7297 	 59.394 	 
C 	 2.80824 	 -14.7326 	 58.9734 	 
C 	 2.01023 	 -14.2295 	 57.9623 	 
H 	 2.72918 	 -15.6842 	 59.4781 	 
C 	 4.63177 	 -14.0057 	 60.5621 	 
H 	 4.29655 	 -14.8943 	 61.0722 	 
H 	 4.56765 	 -13.1809 	 61.2697 	 
C 	 6.06916 	 -14.5685 	 60.2028 	 
H 	 6.43852 	 -15.0362 	 61.118 	 
H 	 6.11251 	 -15.3086 	 59.3668 	 
C 	 6.96745 	 -13.4408 	 59.6191 	 
H 	 7.00632 	 -12.5297 	 60.2476 	 
H 	 7.97223 	 -13.7121 	 59.3074 	 
H 	 6.41081 	 -13.1696 	 58.7086 	 
S 	 -0.544258 	 -14.0994 	 56.8466 	 
C 	 -1.29923 	 -15.5491 	 56.2747 	 
C 	 -0.495411 	 -16.6515 	 56.3781 	 
C 	 0.863788 	 -16.3543 	 56.8551 	 
C 	 0.979215 	 -14.9784 	 57.1868 	 
H 	 -0.79139 	 -17.6244 	 56.0061 	 
C 	 1.86511 	 -17.4934 	 57.1073 	 
H 	 1.69313 	 -17.9091 	 58.0859 	 
H 	 2.84492 	 -16.9732 	 57.1051 	 
C 	 1.94928 	 -18.6521 	 56.0185 	 
H 	 2.19666 	 -18.2669 	 55.0954 	 
H 	 0.96831 	 -19.043 	 55.8313 	 
C 	 3.034 	 -19.6892 	 56.4104 	 
H 	 2.76161 	 -20.1979 	 57.2757 	 
H 	 3.96332 	 -19.2214 	 56.7954 	 
H 	 3.12486 	 -20.5223 	 55.6356 	 
H 	 4.16654 	 -11.6775 	 58.9667 	 
H 	 -2.32764 	 -15.4643 	 55.9744 	 
