34

S 	 3.73764 	 -22.416 	 59.1806 	 
C 	 3.37197 	 -24.1311 	 59.3547 	 
C 	 4.11854 	 -24.8809 	 58.4806 	 
C 	 5.13463 	 -24.1684 	 57.7339 	 
C 	 5.03012 	 -22.8229 	 58.0605 	 
H 	 5.91327 	 -24.5585 	 57.0348 	 
C 	 3.88188 	 -26.3405 	 58.1565 	 
H 	 4.3946 	 -26.7686 	 57.2927 	 
H 	 2.85107 	 -26.5405 	 57.911 	 
C 	 4.26621 	 -27.2799 	 59.3789 	 
H 	 5.05841 	 -26.8125 	 59.9246 	 
H 	 3.3604 	 -27.277 	 60.023 	 
C 	 4.45077 	 -28.779 	 59.1119 	 
H 	 4.58521 	 -29.3159 	 60.0821 	 
H 	 3.55366 	 -29.1765 	 58.6579 	 
H 	 5.2798 	 -28.9025 	 58.5518 	 
S 	 5.07684 	 -21.0003 	 56.0292 	 
C 	 6.35518 	 -19.822 	 56.0191 	 
C 	 7.34864 	 -20.0816 	 56.9901 	 
C 	 6.98467 	 -21.1972 	 57.8165 	 
C 	 5.77413 	 -21.7659 	 57.4475 	 
H 	 8.19592 	 -19.4447 	 57.1232 	 
C 	 7.75483 	 -21.513 	 59.0439 	 
H 	 7.13484 	 -22.2505 	 59.5788 	 
H 	 8.04639 	 -20.6429 	 59.6686 	 
C 	 9.09283 	 -22.2327 	 58.7203 	 
H 	 9.46741 	 -22.6408 	 59.6355 	 
H 	 9.7901 	 -21.4374 	 58.339 	 
C 	 8.87324 	 -23.2442 	 57.6147 	 
H 	 9.80612 	 -23.8627 	 57.4756 	 
H 	 8.6306 	 -22.6374 	 56.6779 	 
H 	 8.06995 	 -23.9061 	 57.9059 	 
H 	 2.58282 	 -24.5331 	 59.8967 	 
H 	 6.38238 	 -18.9333 	 55.4387 	 
