34

S 	 -31.0401 	 66.6512 	 108.154 	 
C 	 -31.4797 	 67.4512 	 106.666 	 
C 	 -30.5221 	 67.1323 	 105.679 	 
C 	 -29.5379 	 66.2484 	 106.145 	 
C 	 -29.6314 	 65.8526 	 107.5 	 
H 	 -28.6461 	 65.8451 	 105.674 	 
C 	 -30.7398 	 67.4586 	 104.261 	 
H 	 -29.6482 	 67.5767 	 103.911 	 
H 	 -31.0569 	 68.5433 	 104.166 	 
C 	 -31.4547 	 66.4572 	 103.45 	 
H 	 -31.2686 	 66.5995 	 102.42 	 
H 	 -30.978 	 65.4773 	 103.707 	 
C 	 -32.9289 	 66.3499 	 103.766 	 
H 	 -32.954 	 65.909 	 104.803 	 
H 	 -33.5032 	 67.2342 	 103.717 	 
H 	 -33.3781 	 65.5791 	 103.085 	 
S 	 -27.5431 	 65.9123 	 109.31 	 
C 	 -26.8315 	 64.5034 	 109.722 	 
C 	 -27.183 	 63.3892 	 109.023 	 
C 	 -28.0857 	 63.7576 	 107.948 	 
C 	 -28.5718 	 65.0688 	 108.2 	 
H 	 -26.721 	 62.4615 	 109.187 	 
C 	 -28.6012 	 62.7049 	 106.973 	 
H 	 -28.8462 	 63.2299 	 106.113 	 
H 	 -29.5565 	 62.2905 	 107.373 	 
C 	 -27.6156 	 61.5957 	 106.503 	 
H 	 -28.2012 	 60.861 	 105.92 	 
H 	 -27.2766 	 61.0682 	 107.414 	 
C 	 -26.3242 	 61.9727 	 105.706 	 
H 	 -26.6208 	 62.6511 	 104.913 	 
H 	 -25.7305 	 61.1282 	 105.353 	 
H 	 -25.605 	 62.5115 	 106.375 	 
H 	 -32.4774 	 67.8265 	 106.534 	 
H 	 -26.1676 	 64.3959 	 110.536 	 
