34

S 	 -14.0647 	 70.4354 	 48.6317 	 
C 	 -14.692 	 69.1984 	 47.4576 	 
C 	 -15.9298 	 69.5796 	 46.9768 	 
C 	 -16.3612 	 70.7884 	 47.4793 	 
C 	 -15.472 	 71.4446 	 48.3006 	 
H 	 -17.225 	 71.23 	 47.1907 	 
C 	 -16.776 	 68.7288 	 46.0319 	 
H 	 -17.6812 	 68.4753 	 46.4524 	 
H 	 -16.3085 	 67.8349 	 46.0375 	 
C 	 -16.9336 	 69.2669 	 44.6004 	 
H 	 -17.6216 	 70.1405 	 44.5958 	 
H 	 -15.9315 	 69.5438 	 44.308 	 
C 	 -17.45 	 68.1378 	 43.5972 	 
H 	 -17.2882 	 68.4757 	 42.5545 	 
H 	 -16.9225 	 67.2198 	 43.6872 	 
H 	 -18.4853 	 67.8867 	 43.6903 	 
S 	 -15.6055 	 72.6894 	 50.7417 	 
C 	 -15.8361 	 74.4393 	 50.7615 	 
C 	 -15.8624 	 75.0204 	 49.5419 	 
C 	 -15.7341 	 74.0425 	 48.5289 	 
C 	 -15.657 	 72.7344 	 48.9595 	 
H 	 -15.9802 	 76.0579 	 49.4211 	 
C 	 -15.7235 	 74.3275 	 47.026 	 
H 	 -16.5366 	 75.0231 	 46.7583 	 
H 	 -15.9336 	 73.4746 	 46.4543 	 
C 	 -14.3468 	 74.9094 	 46.4571 	 
H 	 -13.6137 	 74.2366 	 46.7354 	 
H 	 -14.0267 	 75.8497 	 47.0001 	 
C 	 -14.2087 	 75.1054 	 44.9193 	 
H 	 -14.872 	 75.9003 	 44.5343 	 
H 	 -14.4219 	 74.2176 	 44.2953 	 
H 	 -13.221 	 75.3586 	 44.7146 	 
H 	 -14.3289 	 68.1573 	 47.2614 	 
H 	 -15.9447 	 74.9663 	 51.6837 	 
