34

S 	 -97.3019 	 51.5618 	 122.225 	 
C 	 -95.9791 	 50.4655 	 121.751 	 
C 	 -95.7591 	 49.5235 	 122.663 	 
C 	 -96.7751 	 49.4989 	 123.675 	 
C 	 -97.744 	 50.4769 	 123.45 	 
H 	 -96.9011 	 48.8753 	 124.549 	 
C 	 -94.5169 	 48.6592 	 122.597 	 
H 	 -93.8802 	 48.9245 	 121.786 	 
H 	 -94.7231 	 47.6433 	 122.349 	 
C 	 -93.6403 	 48.5909 	 123.925 	 
H 	 -93.3227 	 49.6059 	 124.077 	 
H 	 -94.2177 	 48.2924 	 124.8 	 
C 	 -92.386 	 47.6955 	 123.67 	 
H 	 -91.7504 	 48.1529 	 122.893 	 
H 	 -91.7538 	 47.4402 	 124.522 	 
H 	 -92.7672 	 46.7981 	 123.186 	 
S 	 -100.432 	 50.8895 	 123.134 	 
C 	 -101.506 	 50.939 	 124.539 	 
C 	 -100.785 	 50.776 	 125.714 	 
C 	 -99.4168 	 50.5421 	 125.453 	 
C 	 -99.0412 	 50.5216 	 124.104 	 
H 	 -101.266 	 50.8501 	 126.688 	 
C 	 -98.5358 	 50.2487 	 126.713 	 
H 	 -98.0547 	 49.3472 	 126.46 	 
H 	 -99.2138 	 49.928 	 127.53 	 
C 	 -97.5314 	 51.3351 	 127.107 	 
H 	 -97.9717 	 52.2885 	 127.213 	 
H 	 -96.856 	 51.4732 	 126.209 	 
C 	 -96.6516 	 51.0553 	 128.328 	 
H 	 -97.344 	 50.9452 	 129.191 	 
H 	 -96.0226 	 51.9148 	 128.567 	 
H 	 -96.0521 	 50.1363 	 128.166 	 
H 	 -95.2364 	 50.5846 	 120.962 	 
H 	 -102.514 	 51.2094 	 124.624 	 
