34

S 	 -2.36402 	 -25.4478 	 58.2368 	 
C 	 -2.74695 	 -24.5979 	 59.6655 	 
C 	 -2.99189 	 -23.2668 	 59.4288 	 
C 	 -2.72412 	 -22.8987 	 58.0622 	 
C 	 -2.34089 	 -23.9628 	 57.26 	 
H 	 -2.68789 	 -21.9399 	 57.5312 	 
C 	 -3.49689 	 -22.1937 	 60.4225 	 
H 	 -2.82522 	 -21.3783 	 60.5407 	 
H 	 -3.57344 	 -22.6054 	 61.3958 	 
C 	 -4.93644 	 -21.6496 	 60.1993 	 
H 	 -5.2101 	 -21.0472 	 61.0554 	 
H 	 -4.81038 	 -21.0603 	 59.2706 	 
C 	 -5.92513 	 -22.8529 	 60.0607 	 
H 	 -6.88314 	 -22.6164 	 59.5663 	 
H 	 -5.56401 	 -23.6704 	 59.4156 	 
H 	 -6.30935 	 -23.2842 	 61.0095 	 
S 	 -0.50519 	 -24.9809 	 55.5555 	 
C 	 -0.589732 	 -24.7397 	 53.8889 	 
C 	 -1.6069 	 -23.7937 	 53.6158 	 
C 	 -2.29547 	 -23.3692 	 54.7921 	 
C 	 -1.87883 	 -24.0688 	 55.8722 	 
H 	 -1.96947 	 -23.5345 	 52.6467 	 
C 	 -3.42375 	 -22.3705 	 54.7919 	 
H 	 -4.12775 	 -22.5333 	 55.6004 	 
H 	 -3.99379 	 -22.3555 	 53.8768 	 
C 	 -2.90067 	 -20.9505 	 54.9408 	 
H 	 -2.13831 	 -20.8557 	 54.1178 	 
H 	 -2.27978 	 -20.7379 	 55.8563 	 
C 	 -4.12198 	 -20.0601 	 54.834 	 
H 	 -4.88779 	 -20.1919 	 55.6402 	 
H 	 -4.6269 	 -20.093 	 53.8515 	 
H 	 -3.79966 	 -19.0241 	 55.0747 	 
H 	 -2.90288 	 -25.0629 	 60.6211 	 
H 	 0.0264055 	 -25.1992 	 53.0812 	 
