34

S 	 -93.5819 	 56.0594 	 126.161 	 
C 	 -92.2799 	 54.8844 	 126.028 	 
C 	 -92.7275 	 53.6504 	 125.597 	 
C 	 -94.1239 	 53.6593 	 125.447 	 
C 	 -94.7088 	 54.833 	 125.639 	 
H 	 -94.7456 	 52.8255 	 125.221 	 
C 	 -91.8466 	 52.4513 	 125.164 	 
H 	 -92.6105 	 51.6368 	 125.101 	 
H 	 -91.2309 	 51.9828 	 125.979 	 
C 	 -91.1192 	 52.4738 	 123.782 	 
H 	 -90.1679 	 53.1106 	 123.825 	 
H 	 -90.678 	 51.502 	 123.613 	 
C 	 -92.0672 	 52.8754 	 122.638 	 
H 	 -92.9278 	 52.2238 	 122.481 	 
H 	 -92.4072 	 53.9027 	 122.78 	 
H 	 -91.5801 	 52.9002 	 121.682 	 
S 	 -96.9578 	 55.6658 	 126.971 	 
C 	 -98.5624 	 55.432 	 126.252 	 
C 	 -98.4616 	 55.2563 	 124.889 	 
C 	 -97.111 	 54.9524 	 124.483 	 
C 	 -96.1703 	 55.0795 	 125.518 	 
H 	 -99.3008 	 55.355 	 124.226 	 
C 	 -96.8139 	 54.328 	 123.16 	 
H 	 -95.7209 	 54.4733 	 122.864 	 
H 	 -97.548 	 54.8647 	 122.531 	 
C 	 -97.1026 	 52.7969 	 123.152 	 
H 	 -98.1155 	 52.5264 	 123.44 	 
H 	 -96.5183 	 52.3206 	 123.923 	 
C 	 -96.8566 	 52.1468 	 121.785 	 
H 	 -95.8906 	 52.4669 	 121.393 	 
H 	 -97.5296 	 52.4672 	 121.034 	 
H 	 -96.9636 	 51.045 	 121.835 	 
H 	 -91.2532 	 55.1916 	 126.06 	 
H 	 -99.4459 	 55.6946 	 126.827 	 
