34

S 	 -36.8365 	 23.9538 	 80.8476 	 
C 	 -38.4602 	 24.5992 	 80.9121 	 
C 	 -39.2299 	 24.1192 	 79.819 	 
C 	 -38.369 	 23.2952 	 78.9201 	 
C 	 -37.0731 	 23.1274 	 79.3689 	 
H 	 -38.7399 	 22.9973 	 77.9694 	 
C 	 -40.6549 	 24.3412 	 79.6974 	 
H 	 -41.0642 	 24.4449 	 78.6632 	 
H 	 -40.8397 	 25.2637 	 80.1396 	 
C 	 -41.5595 	 23.364 	 80.3602 	 
H 	 -42.5847 	 23.7395 	 80.2673 	 
H 	 -41.4557 	 22.426 	 79.7314 	 
C 	 -41.3213 	 23.1478 	 81.9139 	 
H 	 -40.3341 	 22.688 	 82.0731 	 
H 	 -41.515 	 24.1033 	 82.455 	 
H 	 -42.0235 	 22.4304 	 82.4592 	 
S 	 -35.0162 	 23.5905 	 77.5631 	 
C 	 -34.3313 	 22.233 	 76.7679 	 
C 	 -34.8141 	 21.0268 	 77.2118 	 
C 	 -35.705 	 21.1509 	 78.2742 	 
C 	 -35.9345 	 22.5199 	 78.6337 	 
H 	 -34.4671 	 20.1302 	 76.8614 	 
C 	 -36.4493 	 19.9342 	 78.9033 	 
H 	 -36.8356 	 20.1272 	 79.9518 	 
H 	 -35.7023 	 19.1744 	 78.9276 	 
C 	 -37.648 	 19.4392 	 78.1413 	 
H 	 -37.3444 	 19.0069 	 77.2064 	 
H 	 -38.3771 	 20.2672 	 77.9282 	 
C 	 -38.5435 	 18.4132 	 78.9252 	 
H 	 -39.4741 	 18.185 	 78.3285 	 
H 	 -38.7446 	 18.9082 	 79.8975 	 
H 	 -38.1052 	 17.4138 	 79.1052 	 
H 	 -38.8924 	 25.2192 	 81.6195 	 
H 	 -33.5952 	 22.3389 	 75.9734 	 
