34

S 	 24.0666 	 -9.18861 	 76.9928 	 
C 	 25.2862 	 -9.11306 	 75.7209 	 
C 	 26.4996 	 -9.08154 	 76.3732 	 
C 	 26.4954 	 -9.33144 	 77.7702 	 
C 	 25.2287 	 -9.31205 	 78.2546 	 
H 	 27.3012 	 -9.40162 	 78.4542 	 
C 	 27.741 	 -8.7818 	 75.5952 	 
H 	 27.6292 	 -7.78989 	 75.2117 	 
H 	 27.8212 	 -9.37982 	 74.6866 	 
C 	 29.146 	 -8.79107 	 76.254 	 
H 	 29.169 	 -7.98323 	 77.052 	 
H 	 29.256 	 -9.7096 	 76.8955 	 
C 	 30.3535 	 -8.6403 	 75.271 	 
H 	 31.255 	 -8.79255 	 75.9535 	 
H 	 30.2863 	 -9.45138 	 74.4923 	 
H 	 30.356 	 -7.64061 	 74.8587 	 
S 	 24.0136 	 -11.1406 	 79.8148 	 
C 	 23.8769 	 -10.8479 	 81.4889 	 
C 	 24.3636 	 -9.60009 	 81.8862 	 
C 	 25.0081 	 -8.89311 	 80.8336 	 
C 	 24.7747 	 -9.55126 	 79.6162 	 
H 	 24.2301 	 -9.27117 	 82.9338 	 
C 	 25.7283 	 -7.55174 	 80.9897 	 
H 	 25.9471 	 -7.11961 	 80.0115 	 
H 	 26.6992 	 -7.79179 	 81.3391 	 
C 	 24.9873 	 -6.51824 	 81.815 	 
H 	 24.6927 	 -6.84335 	 82.8335 	 
H 	 23.992 	 -6.40521 	 81.3239 	 
C 	 25.5099 	 -5.0954 	 81.8565 	 
H 	 26.4004 	 -5.03199 	 82.5837 	 
H 	 24.854 	 -4.29517 	 82.1883 	 
H 	 25.8863 	 -4.70583 	 80.9466 	 
H 	 25.0734 	 -8.97777 	 74.7136 	 
H 	 23.3248 	 -11.6064 	 82.1266 	 
