34

S 	 39.1836 	 27.6708 	 95.5968 	 
C 	 39.1814 	 28.563 	 94.0007 	 
C 	 39.8355 	 27.8104 	 93.0648 	 
C 	 40.1832 	 26.4797 	 93.5234 	 
C 	 39.8838 	 26.2935 	 94.8614 	 
H 	 40.5288 	 25.69 	 92.8347 	 
C 	 40.0117 	 28.2303 	 91.6724 	 
H 	 40.9147 	 27.6955 	 91.3175 	 
H 	 40.2204 	 29.2605 	 91.6274 	 
C 	 38.7977 	 28.0174 	 90.7485 	 
H 	 38.011 	 28.704 	 90.9384 	 
H 	 39.0595 	 28.3534 	 89.7438 	 
C 	 38.34 	 26.6063 	 90.655 	 
H 	 39.1863 	 25.9807 	 90.7702 	 
H 	 37.5153 	 26.345 	 91.3018 	 
H 	 38.0453 	 26.4011 	 89.6382 	 
S 	 38.6566 	 24.7452 	 96.7796 	 
C 	 39.2603 	 23.173 	 97.1948 	 
C 	 40.2678 	 22.8108 	 96.3728 	 
C 	 40.7021 	 23.8725 	 95.5053 	 
C 	 39.9726 	 25.0339 	 95.6302 	 
H 	 40.801 	 21.8834 	 96.5028 	 
C 	 41.8843 	 23.6391 	 94.6184 	 
H 	 42.6822 	 23.2953 	 95.2636 	 
H 	 42.2188 	 24.6475 	 94.3109 	 
C 	 41.5184 	 22.8448 	 93.3017 	 
H 	 42.2486 	 22.8493 	 92.5405 	 
H 	 40.696 	 23.2863 	 92.8371 	 
C 	 41.1006 	 21.3419 	 93.5251 	 
H 	 40.0526 	 21.0954 	 93.4941 	 
H 	 41.497 	 21.0341 	 94.4674 	 
H 	 41.6438 	 20.6712 	 92.841 	 
H 	 38.9095 	 29.567 	 93.7834 	 
H 	 38.952 	 22.5119 	 97.914 	 
