34

S 	 44.4526 	 12.1438 	 105.706 	 
C 	 45.985 	 12.2521 	 106.475 	 
C 	 46.8779 	 11.3194 	 105.965 	 
C 	 46.4387 	 10.7439 	 104.759 	 
C 	 45.1137 	 10.9704 	 104.528 	 
H 	 46.9779 	 10.0285 	 104.13 	 
C 	 48.2546 	 10.9425 	 106.495 	 
H 	 48.6937 	 11.79 	 107.059 	 
H 	 48.9236 	 10.8858 	 105.678 	 
C 	 48.435 	 9.68044 	 107.266 	 
H 	 47.6473 	 8.98677 	 106.927 	 
H 	 49.4698 	 9.31393 	 107.101 	 
C 	 48.1468 	 9.97651 	 108.724 	 
H 	 47.1561 	 10.4799 	 108.712 	 
H 	 48.0162 	 9.06252 	 109.272 	 
H 	 48.9016 	 10.6559 	 109.163 	 
S 	 43.3398 	 9.39517 	 103.223 	 
C 	 43.2035 	 9.3901 	 101.506 	 
C 	 44.044 	 10.3576 	 100.982 	 
C 	 44.6496 	 11.1923 	 101.985 	 
C 	 44.4503 	 10.6947 	 103.283 	 
H 	 44.0769 	 10.4209 	 99.8792 	 
C 	 45.6721 	 12.2582 	 101.654 	 
H 	 46.6469 	 11.8864 	 101.43 	 
H 	 45.9346 	 12.7888 	 102.583 	 
C 	 45.1066 	 13.3659 	 100.646 	 
H 	 44.7631 	 12.9089 	 99.6938 	 
H 	 45.9593 	 13.9652 	 100.32 	 
C 	 44.0037 	 14.2878 	 101.244 	 
H 	 44.0282 	 15.2695 	 100.77 	 
H 	 44.2097 	 14.3659 	 102.275 	 
H 	 43.0353 	 13.8624 	 101.082 	 
H 	 46.2302 	 12.7736 	 107.409 	 
H 	 42.6772 	 8.63787 	 100.94 	 
