34

S 	 4.22415 	 -7.7918 	 80.4832 	 
C 	 4.88361 	 -7.8872 	 82.1305 	 
C 	 4.97706 	 -6.64586 	 82.7102 	 
C 	 4.25677 	 -5.66349 	 82.0223 	 
C 	 3.80187 	 -6.11634 	 80.7725 	 
H 	 4.13119 	 -4.62583 	 82.2687 	 
C 	 5.83843 	 -6.40628 	 83.9895 	 
H 	 6.69863 	 -5.79365 	 83.791 	 
H 	 6.33552 	 -7.40897 	 84.0955 	 
C 	 5.03516 	 -6.12656 	 85.3009 	 
H 	 5.75039 	 -6.19442 	 86.0708 	 
H 	 4.60523 	 -5.20602 	 85.2829 	 
C 	 3.97849 	 -7.18523 	 85.5762 	 
H 	 3.54395 	 -7.09509 	 86.5606 	 
H 	 3.17184 	 -7.15779 	 84.8405 	 
H 	 4.38403 	 -8.19502 	 85.5681 	 
S 	 4.27515 	 -4.32463 	 78.7692 	 
C 	 2.9396 	 -3.64543 	 77.9035 	 
C 	 1.70759 	 -4.17167 	 78.2782 	 
C 	 1.88144 	 -5.02271 	 79.4115 	 
C 	 3.20489 	 -5.32596 	 79.7698 	 
H 	 0.836346 	 -3.86034 	 77.7985 	 
C 	 0.666463 	 -5.4936 	 80.279 	 
H 	 0.403117 	 -4.66806 	 80.89 	 
H 	 1.02109 	 -6.24545 	 81.0873 	 
C 	 -0.534446 	 -5.84523 	 79.4497 	 
H 	 -0.713188 	 -5.09641 	 78.7707 	 
H 	 -1.35644 	 -5.94407 	 80.106 	 
C 	 -0.232814 	 -7.07705 	 78.6532 	 
H 	 -0.182205 	 -7.93999 	 79.2954 	 
H 	 0.664024 	 -7.06965 	 78.0977 	 
H 	 -0.954305 	 -7.32891 	 77.9418 	 
H 	 5.41781 	 -8.79776 	 82.4962 	 
H 	 3.07958 	 -2.79234 	 77.2342 	 
