34

S 	 -3.06119 	 -23.6017 	 60.2309 	 
C 	 -2.39599 	 -22.0275 	 60.5671 	 
C 	 -2.20947 	 -21.2304 	 59.4273 	 
C 	 -2.72048 	 -21.9397 	 58.3002 	 
C 	 -3.27299 	 -23.1664 	 58.5436 	 
H 	 -2.73389 	 -21.4864 	 57.3495 	 
C 	 -1.43923 	 -19.8973 	 59.2701 	 
H 	 -0.787829 	 -20.0667 	 58.4787 	 
H 	 -0.763456 	 -19.7578 	 60.141 	 
C 	 -2.38704 	 -18.7081 	 59.1283 	 
H 	 -1.77211 	 -17.9121 	 58.5537 	 
H 	 -3.14161 	 -18.9174 	 58.4028 	 
C 	 -2.92105 	 -18.2795 	 60.537 	 
H 	 -3.32535 	 -17.3096 	 60.5358 	 
H 	 -3.59479 	 -18.9342 	 61.0922 	 
H 	 -2.01171 	 -18.2882 	 61.0918 	 
S 	 -3.81303 	 -25.8332 	 58.1841 	 
C 	 -4.20886 	 -26.478 	 56.639 	 
C 	 -4.35221 	 -25.4371 	 55.7469 	 
C 	 -4.0899 	 -24.1394 	 56.2715 	 
C 	 -3.7069 	 -24.1733 	 57.6329 	 
H 	 -4.66684 	 -25.703 	 54.8191 	 
C 	 -4.1569 	 -22.9165 	 55.388 	 
H 	 -4.58807 	 -22.006 	 55.8676 	 
H 	 -5.00102 	 -23.1198 	 54.7584 	 
C 	 -2.93128 	 -22.5556 	 54.5891 	 
H 	 -2.56239 	 -23.4823 	 54.0947 	 
H 	 -2.16018 	 -22.3609 	 55.3016 	 
C 	 -3.12838 	 -21.3719 	 53.5835 	 
H 	 -3.19244 	 -20.5068 	 54.1299 	 
H 	 -4.0247 	 -21.4629 	 52.9054 	 
H 	 -2.23488 	 -21.0518 	 53.0066 	 
H 	 -1.92435 	 -21.8486 	 61.4966 	 
H 	 -4.48617 	 -27.4486 	 56.3224 	 
