34

S 	 29.0616 	 25.3264 	 51.9807 	 
C 	 29.1329 	 26.2059 	 50.4775 	 
C 	 29.5562 	 27.4836 	 50.6222 	 
C 	 29.7906 	 27.8048 	 52.0276 	 
C 	 29.6956 	 26.6967 	 52.8852 	 
H 	 30.0285 	 28.7535 	 52.4702 	 
C 	 29.5977 	 28.5798 	 49.6141 	 
H 	 28.6038 	 28.5935 	 49.1957 	 
H 	 30.1932 	 28.2463 	 48.7415 	 
C 	 30.0512 	 29.9907 	 50.0186 	 
H 	 29.4115 	 30.2509 	 50.9011 	 
H 	 31.0929 	 30.0744 	 50.2647 	 
C 	 29.7244 	 31.105 	 49.0042 	 
H 	 30.0728 	 32.029 	 49.3948 	 
H 	 30.1979 	 31.0253 	 48.019 	 
H 	 28.6538 	 31.2329 	 48.8999 	 
S 	 31.3591 	 27.7714 	 54.7835 	 
C 	 31.1426 	 27.4714 	 56.477 	 
C 	 30.0527 	 26.7068 	 56.7311 	 
C 	 29.307 	 26.3332 	 55.4915 	 
C 	 29.9774 	 26.7162 	 54.3056 	 
H 	 29.7653 	 26.4455 	 57.6927 	 
C 	 28.0367 	 25.5948 	 55.6174 	 
H 	 27.5108 	 25.5069 	 54.6269 	 
H 	 27.3683 	 26.2117 	 56.2132 	 
C 	 28.2647 	 24.2172 	 56.185 	 
H 	 28.801 	 24.3016 	 57.0997 	 
H 	 28.9889 	 23.8362 	 55.5023 	 
C 	 27.0067 	 23.287 	 56.2411 	 
H 	 26.6244 	 23.1251 	 55.2583 	 
H 	 26.1492 	 23.7416 	 56.8601 	 
H 	 27.2371 	 22.3274 	 56.7915 	 
H 	 28.9764 	 25.7122 	 49.5165 	 
H 	 31.6696 	 27.8908 	 57.3647 	 
