34

S 	 -15.1951 	 -10.9222 	 90.9175 	 
C 	 -15.2178 	 -12.3469 	 91.8729 	 
C 	 -14.1716 	 -13.2652 	 91.5547 	 
C 	 -13.3782 	 -12.6481 	 90.5293 	 
C 	 -13.6982 	 -11.4197 	 90.1305 	 
H 	 -12.4653 	 -13.0958 	 90.1555 	 
C 	 -14.0043 	 -14.5933 	 92.2997 	 
H 	 -14.4264 	 -15.3777 	 91.7683 	 
H 	 -14.465 	 -14.5998 	 93.2676 	 
C 	 -12.5272 	 -15.0289 	 92.5013 	 
H 	 -12.1913 	 -15.1628 	 91.4827 	 
H 	 -11.8788 	 -14.2021 	 92.888 	 
C 	 -12.1726 	 -16.2483 	 93.2807 	 
H 	 -12.7308 	 -16.2853 	 94.2184 	 
H 	 -12.4281 	 -17.1085 	 92.7238 	 
H 	 -11.151 	 -16.3705 	 93.4317 	 
S 	 -11.9469 	 -9.42294 	 89.6353 	 
C 	 -11.4093 	 -9.21631 	 88.0155 	 
C 	 -12.1442 	 -9.96735 	 87.0911 	 
C 	 -13.1013 	 -10.8599 	 87.7367 	 
C 	 -13.0931 	 -10.6573 	 89.1154 	 
H 	 -11.9698 	 -9.81164 	 85.9879 	 
C 	 -13.84 	 -11.8859 	 86.9463 	 
H 	 -14.6046 	 -11.484 	 86.2227 	 
H 	 -14.5172 	 -12.3269 	 87.6905 	 
C 	 -13.0191 	 -12.9688 	 86.2517 	 
H 	 -12.3055 	 -13.429 	 86.8993 	 
H 	 -12.4441 	 -12.4898 	 85.4432 	 
C 	 -13.7557 	 -14.1565 	 85.7528 	 
H 	 -14.342 	 -14.6323 	 86.5666 	 
H 	 -13.0498 	 -14.9232 	 85.3581 	 
H 	 -14.5269 	 -13.9739 	 85.0036 	 
H 	 -16.053 	 -12.6005 	 92.5768 	 
H 	 -10.6744 	 -8.46422 	 87.806 	 
