34

S 	 59.0401 	 3.57822 	 75.9391 	 
C 	 58.2039 	 4.59216 	 77.1357 	 
C 	 57.3188 	 5.44902 	 76.5124 	 
C 	 57.2421 	 5.27811 	 75.1008 	 
C 	 58.1594 	 4.32274 	 74.6381 	 
H 	 56.7275 	 5.67132 	 74.3258 	 
C 	 56.3499 	 6.46548 	 77.1053 	 
H 	 56.5614 	 6.18616 	 78.1467 	 
H 	 55.4428 	 5.97273 	 77.0203 	 
C 	 56.5511 	 7.9457 	 76.8591 	 
H 	 57.5668 	 8.09495 	 77.1394 	 
H 	 56.2295 	 8.17822 	 75.8212 	 
C 	 55.8579 	 8.85564 	 77.8418 	 
H 	 54.7975 	 8.82375 	 77.4861 	 
H 	 56.0357 	 8.51425 	 78.8541 	 
H 	 56.03 	 9.94648 	 77.8563 	 
S 	 58.1184 	 2.10852 	 72.9689 	 
C 	 58.0131 	 2.27662 	 71.2185 	 
C 	 58.0186 	 3.60497 	 70.8865 	 
C 	 58.1436 	 4.49446 	 71.9987 	 
C 	 58.3024 	 3.88819 	 73.2246 	 
H 	 57.8065 	 3.92121 	 69.8751 	 
C 	 58.1264 	 6.03119 	 71.8514 	 
H 	 58.2875 	 6.45684 	 72.8598 	 
H 	 57.0867 	 6.22774 	 71.6064 	 
C 	 59.1478 	 6.58882 	 70.87 	 
H 	 59.1403 	 5.92392 	 70.02 	 
H 	 60.1136 	 6.5356 	 71.277 	 
C 	 58.7984 	 8.03092 	 70.6111 	 
H 	 57.7163 	 7.99453 	 70.1941 	 
H 	 59.3922 	 8.4889 	 69.8492 	 
H 	 58.8099 	 8.70602 	 71.4377 	 
H 	 58.2749 	 4.49875 	 78.183 	 
H 	 57.797 	 1.40841 	 70.5889 	 
