34

S 	 7.45714 	 -22.5146 	 86.8179 	 
C 	 5.84815 	 -23.278 	 86.9769 	 
C 	 4.83234 	 -22.3449 	 86.6943 	 
C 	 5.38999 	 -21.0193 	 86.5727 	 
C 	 6.76606 	 -20.9633 	 86.4934 	 
H 	 4.95304 	 -20.0649 	 86.4662 	 
C 	 3.34572 	 -22.6152 	 86.6236 	 
H 	 2.81504 	 -22.4601 	 87.5441 	 
H 	 3.34063 	 -23.7325 	 86.7197 	 
C 	 2.66417 	 -22.1176 	 85.3721 	 
H 	 2.73171 	 -21.0308 	 85.3052 	 
H 	 3.26297 	 -22.5345 	 84.4923 	 
C 	 1.27266 	 -22.5501 	 85.1979 	 
H 	 0.991436 	 -22.3385 	 84.2495 	 
H 	 1.19035 	 -23.6406 	 85.3034 	 
H 	 0.580488 	 -22.1002 	 85.8702 	 
S 	 8.9442 	 -20.0783 	 85.0587 	 
C 	 9.2676 	 -18.3909 	 84.9498 	 
C 	 8.22599 	 -17.6244 	 85.4431 	 
C 	 7.25386 	 -18.4472 	 86.1526 	 
C 	 7.52539 	 -19.804 	 86.1423 	 
H 	 8.16431 	 -16.5492 	 85.3807 	 
C 	 6.06268 	 -17.6937 	 86.7035 	 
H 	 6.41931 	 -16.8283 	 87.2772 	 
H 	 5.59744 	 -18.4225 	 87.334 	 
C 	 4.93233 	 -17.309 	 85.671 	 
H 	 4.59408 	 -18.1234 	 84.9958 	 
H 	 5.38574 	 -16.5871 	 85.0487 	 
C 	 3.64674 	 -16.8076 	 86.3441 	 
H 	 3.15457 	 -17.6273 	 86.8383 	 
H 	 2.98911 	 -16.4759 	 85.5077 	 
H 	 3.70862 	 -15.8891 	 86.9312 	 
H 	 5.68793 	 -24.2886 	 87.2144 	 
H 	 10.1282 	 -17.9577 	 84.4293 	 
