34

S 	 -72.6906 	 44.5169 	 124.836 	 
C 	 -73.862 	 43.3411 	 125.365 	 
C 	 -74.9947 	 43.452 	 124.543 	 
C 	 -74.9493 	 44.5976 	 123.738 	 
C 	 -73.7693 	 45.3257 	 123.781 	 
H 	 -75.7756 	 44.8962 	 123.138 	 
C 	 -76.1949 	 42.5639 	 124.626 	 
H 	 -77.0177 	 43.0428 	 124.1 	 
H 	 -76.3903 	 42.7538 	 125.688 	 
C 	 -76.0681 	 41.0466 	 124.285 	 
H 	 -75.8002 	 41.009 	 123.24 	 
H 	 -75.1406 	 40.5925 	 124.623 	 
C 	 -77.2502 	 40.216 	 124.454 	 
H 	 -77.0233 	 39.2354 	 124.137 	 
H 	 -77.6054 	 40.0913 	 125.473 	 
H 	 -78.1346 	 40.6145 	 123.8 	 
S 	 -73.4312 	 48.0196 	 124.353 	 
C 	 -73.4051 	 49.1825 	 123.041 	 
C 	 -73.7864 	 48.617 	 121.857 	 
C 	 -73.9484 	 47.2014 	 121.957 	 
C 	 -73.507 	 46.6672 	 123.185 	 
H 	 -74.0518 	 49.2092 	 120.986 	 
C 	 -74.2566 	 46.3772 	 120.788 	 
H 	 -75.233 	 45.8999 	 120.856 	 
H 	 -73.4556 	 45.6589 	 120.982 	 
C 	 -74.2032 	 46.9384 	 119.329 	 
H 	 -73.3048 	 47.5536 	 119.342 	 
H 	 -75.0175 	 47.6779 	 119.207 	 
C 	 -74.0137 	 46.0468 	 118.1 	 
H 	 -73.1911 	 45.2546 	 118.38 	 
H 	 -73.6847 	 46.6293 	 117.306 	 
H 	 -74.9707 	 45.5896 	 117.739 	 
H 	 -73.7943 	 42.4993 	 125.963 	 
H 	 -73.3027 	 50.2205 	 123.287 	 
