34

S 	 31.7185 	 3.37451 	 72.8279 	 
C 	 30.123 	 3.93944 	 73.1889 	 
C 	 29.4123 	 2.92231 	 73.8563 	 
C 	 30.1301 	 1.65015 	 73.8588 	 
C 	 31.3408 	 1.72596 	 73.2555 	 
H 	 29.7772 	 0.726597 	 74.3334 	 
C 	 28.1074 	 3.33222 	 74.6275 	 
H 	 28.0427 	 4.36774 	 74.9703 	 
H 	 28.1685 	 2.64028 	 75.461 	 
C 	 26.7625 	 3.05828 	 73.8028 	 
H 	 26.5968 	 2.02167 	 73.5571 	 
H 	 25.8833 	 3.35082 	 74.4906 	 
C 	 26.7808 	 3.86377 	 72.4229 	 
H 	 27.0399 	 4.91642 	 72.6342 	 
H 	 27.4522 	 3.49983 	 71.6184 	 
H 	 25.8357 	 3.78447 	 71.9476 	 
S 	 32.6404 	 0.427507 	 71.2293 	 
C 	 33.8342 	 -0.821487 	 71.5489 	 
C 	 33.9352 	 -0.936857 	 72.9033 	 
C 	 32.983 	 -0.183754 	 73.6701 	 
C 	 32.2352 	 0.660694 	 72.8747 	 
H 	 34.7281 	 -1.57384 	 73.3698 	 
C 	 32.9322 	 -0.149885 	 75.1902 	 
H 	 32.5324 	 -1.21461 	 75.4215 	 
H 	 32.0767 	 0.532967 	 75.3795 	 
C 	 34.2685 	 0.242736 	 75.8648 	 
H 	 34.6578 	 1.13014 	 75.4153 	 
H 	 35.0171 	 -0.543128 	 75.8039 	 
C 	 34.1694 	 0.639453 	 77.3124 	 
H 	 35.0408 	 1.19597 	 77.6014 	 
H 	 34.1145 	 -0.241319 	 77.9283 	 
H 	 33.2473 	 1.14063 	 77.5504 	 
H 	 29.7855 	 5.04828 	 73.0749 	 
H 	 34.5337 	 -1.06151 	 70.8213 	 
