34

S 	 -5.43393 	 61.2435 	 56.9895 	 
C 	 -5.15461 	 60.3621 	 58.5125 	 
C 	 -6.34876 	 60.0029 	 59.0362 	 
C 	 -7.48087 	 60.1332 	 58.1623 	 
C 	 -7.121 	 60.6608 	 56.9328 	 
H 	 -8.48811 	 59.7906 	 58.3988 	 
C 	 -6.3985 	 59.2019 	 60.2992 	 
H 	 -5.61518 	 59.4513 	 60.9602 	 
H 	 -6.18345 	 58.1945 	 60.001 	 
C 	 -7.8004 	 59.0992 	 60.9863 	 
H 	 -8.02237 	 60.1146 	 61.3173 	 
H 	 -8.69197 	 58.7942 	 60.4587 	 
C 	 -7.82151 	 58.3621 	 62.3591 	 
H 	 -8.76016 	 58.423 	 62.8849 	 
H 	 -7.54325 	 57.3539 	 62.1595 	 
H 	 -7.02319 	 58.8003 	 63.0565 	 
S 	 -8.75085 	 59.3898 	 55.0683 	 
C 	 -9.54754 	 60.3976 	 53.8772 	 
C 	 -9.16113 	 61.6862 	 53.9814 	 
C 	 -8.17765 	 61.9342 	 54.973 	 
C 	 -7.96302 	 60.7985 	 55.758 	 
H 	 -9.63309 	 62.4776 	 53.4522 	 
C 	 -7.66467 	 63.3554 	 55.1973 	 
H 	 -7.82845 	 63.9268 	 54.3174 	 
H 	 -6.56941 	 63.2078 	 55.2468 	 
C 	 -8.1809 	 64.1507 	 56.4254 	 
H 	 -8.22761 	 63.5027 	 57.2675 	 
H 	 -9.23043 	 64.3408 	 56.2586 	 
C 	 -7.40938 	 65.4525 	 56.8035 	 
H 	 -8.0253 	 66.146 	 57.4143 	 
H 	 -7.16219 	 66.0622 	 55.8915 	 
H 	 -6.49521 	 65.1578 	 57.319 	 
H 	 -4.22111 	 60.2015 	 59.0587 	 
H 	 -10.1777 	 59.978 	 53.1508 	 
