34

S 	 -49.6568 	 61.557 	 131.23 	 
C 	 -48.2229 	 61.8864 	 130.272 	 
C 	 -48.4695 	 61.6957 	 128.919 	 
C 	 -49.8579 	 61.5045 	 128.678 	 
C 	 -50.6552 	 61.3341 	 129.777 	 
H 	 -50.2097 	 61.2264 	 127.733 	 
C 	 -47.3452 	 61.8002 	 127.906 	 
H 	 -46.4627 	 62.1996 	 128.42 	 
H 	 -47.6684 	 62.5529 	 127.305 	 
C 	 -47.119 	 60.458 	 127.133 	 
H 	 -46.7493 	 59.7899 	 127.893 	 
H 	 -47.9893 	 59.9291 	 126.807 	 
C 	 -46.0217 	 60.7308 	 126.062 	 
H 	 -45.0855 	 61.0318 	 126.608 	 
H 	 -45.7747 	 59.8409 	 125.537 	 
H 	 -46.3718 	 61.5615 	 125.51 	 
S 	 -52.884 	 62.3838 	 130.987 	 
C 	 -54.4311 	 61.5594 	 130.893 	 
C 	 -54.3294 	 60.508 	 129.957 	 
C 	 -53.0563 	 60.28 	 129.437 	 
C 	 -52.1074 	 61.1824 	 129.936 	 
H 	 -55.2355 	 60.0128 	 129.616 	 
C 	 -52.9257 	 59.3612 	 128.255 	 
H 	 -52.1535 	 59.7905 	 127.577 	 
H 	 -53.8589 	 59.426 	 127.685 	 
C 	 -52.5078 	 57.911 	 128.546 	 
H 	 -52.9347 	 57.5902 	 129.555 	 
H 	 -51.3535 	 57.7699 	 128.615 	 
C 	 -52.9742 	 56.9781 	 127.416 	 
H 	 -53.7932 	 57.2633 	 126.849 	 
H 	 -53.1699 	 55.98 	 127.656 	 
H 	 -52.2085 	 56.9677 	 126.685 	 
H 	 -47.2085 	 62.0472 	 130.595 	 
H 	 -55.3248 	 61.8836 	 131.384 	 
