34

S 	 -40.7769 	 37.31 	 84.6041 	 
C 	 -39.3934 	 38.4078 	 84.7353 	 
C 	 -38.4204 	 38.132 	 83.7647 	 
C 	 -38.7062 	 36.9614 	 83.0492 	 
C 	 -39.8868 	 36.3413 	 83.3862 	 
H 	 -38.0389 	 36.5378 	 82.3228 	 
C 	 -37.1531 	 38.9313 	 83.5034 	 
H 	 -37.2956 	 39.9408 	 83.2848 	 
H 	 -36.5988 	 38.4182 	 82.662 	 
C 	 -36.0663 	 38.9301 	 84.57 	 
H 	 -36.3991 	 39.5997 	 85.3113 	 
H 	 -35.9872 	 37.9748 	 85.0596 	 
C 	 -34.6214 	 39.264 	 84.2243 	 
H 	 -34.1792 	 38.5626 	 83.4274 	 
H 	 -34.3845 	 40.2772 	 83.8514 	 
H 	 -34.0118 	 39.121 	 85.1411 	 
S 	 -41.926 	 35.3142 	 81.8942 	 
C 	 -41.9634 	 33.5538 	 81.5839 	 
C 	 -40.7401 	 32.9396 	 81.8553 	 
C 	 -39.9049 	 33.8198 	 82.581 	 
C 	 -40.391 	 35.1239 	 82.7192 	 
H 	 -40.5113 	 31.8935 	 81.6925 	 
C 	 -38.6959 	 33.3009 	 83.3725 	 
H 	 -39.1425 	 32.7094 	 84.1903 	 
H 	 -38.1737 	 34.1466 	 83.8009 	 
C 	 -37.6197 	 32.4673 	 82.6323 	 
H 	 -37.4335 	 33.075 	 81.7497 	 
H 	 -37.9976 	 31.4735 	 82.3589 	 
C 	 -36.2784 	 32.3539 	 83.4496 	 
H 	 -35.7302 	 33.3094 	 83.4263 	 
H 	 -35.6203 	 31.5728 	 82.9866 	 
H 	 -36.3453 	 32.2166 	 84.5424 	 
H 	 -39.4592 	 39.2032 	 85.4737 	 
H 	 -42.79 	 32.9328 	 81.3115 	 
