34

S 	 -68.1995 	 56.2122 	 122.643 	 
C 	 -68.5899 	 57.8184 	 122.132 	 
C 	 -68.9825 	 58.6006 	 123.286 	 
C 	 -68.8698 	 57.8344 	 124.454 	 
C 	 -68.3893 	 56.5853 	 124.28 	 
H 	 -69.189 	 58.0651 	 125.438 	 
C 	 -69.2856 	 60.1125 	 123.341 	 
H 	 -68.539 	 60.7534 	 122.833 	 
H 	 -69.1993 	 60.4112 	 124.403 	 
C 	 -70.6864 	 60.604 	 123.009 	 
H 	 -70.8737 	 60.142 	 122.044 	 
H 	 -71.454 	 60.1557 	 123.717 	 
C 	 -70.9119 	 62.1298 	 122.952 	 
H 	 -70.1016 	 62.5501 	 122.281 	 
H 	 -71.8194 	 62.4548 	 122.477 	 
H 	 -70.9 	 62.5769 	 123.944 	 
S 	 -69.6011 	 54.901 	 126.12 	 
C 	 -68.5416 	 53.8304 	 127.031 	 
C 	 -67.2367 	 54.2282 	 126.973 	 
C 	 -67.0704 	 55.1974 	 125.987 	 
C 	 -68.2176 	 55.6031 	 125.312 	 
H 	 -66.4813 	 53.6841 	 127.613 	 
C 	 -65.6832 	 55.7489 	 125.737 	 
H 	 -65.165 	 56.0688 	 126.684 	 
H 	 -65.8468 	 56.6534 	 125.157 	 
C 	 -64.6782 	 54.8303 	 124.987 	 
H 	 -65.0125 	 54.7563 	 123.952 	 
H 	 -64.573 	 53.8798 	 125.506 	 
C 	 -63.2587 	 55.4201 	 124.969 	 
H 	 -62.6253 	 54.6716 	 124.48 	 
H 	 -62.8328 	 55.5064 	 126.005 	 
H 	 -63.2175 	 56.4406 	 124.473 	 
H 	 -68.5111 	 58.2352 	 121.186 	 
H 	 -68.9182 	 53.0189 	 127.63 	 
