34

S 	 -67.7788 	 39.1368 	 118.396 	 
C 	 -69.3841 	 39.2708 	 119.162 	 
C 	 -70.3328 	 39.6864 	 118.207 	 
C 	 -69.7369 	 39.8409 	 116.903 	 
C 	 -68.3586 	 39.5807 	 116.796 	 
H 	 -70.2342 	 40.1069 	 115.961 	 
C 	 -71.8175 	 39.8995 	 118.416 	 
H 	 -72.3354 	 39.0626 	 117.986 	 
H 	 -72.0923 	 40.7502 	 117.793 	 
C 	 -72.3411 	 39.979 	 119.911 	 
H 	 -72.0012 	 39.1384 	 120.479 	 
H 	 -71.9165 	 40.8639 	 120.331 	 
C 	 -73.8595 	 40.0545 	 119.984 	 
H 	 -74.3571 	 39.0067 	 120.035 	 
H 	 -74.1983 	 40.7024 	 120.823 	 
H 	 -74.1746 	 40.5743 	 119.103 	 
S 	 -66.8986 	 38.2785 	 114.896 	 
C 	 -66.1969 	 39.1588 	 113.6 	 
C 	 -66.6038 	 40.4325 	 113.612 	 
C 	 -67.258 	 40.8643 	 114.8 	 
C 	 -67.5025 	 39.7325 	 115.607 	 
H 	 -66.1474 	 41.1538 	 112.936 	 
C 	 -67.9044 	 42.2247 	 115.021 	 
H 	 -67.7897 	 42.663 	 116.059 	 
H 	 -68.9648 	 42.0423 	 114.862 	 
C 	 -67.403 	 43.2034 	 113.997 	 
H 	 -67.6617 	 42.6844 	 113.028 	 
H 	 -66.3422 	 43.2512 	 114.155 	 
C 	 -67.975 	 44.6843 	 113.985 	 
H 	 -67.3649 	 45.4098 	 113.367 	 
H 	 -67.8832 	 45.1059 	 115.037 	 
H 	 -69.0093 	 44.7193 	 113.632 	 
H 	 -69.533 	 38.8294 	 120.17 	 
H 	 -65.631 	 38.6904 	 112.712 	 
