34

S 	 35.4509 	 23.212 	 46.7058 	 
C 	 36.3214 	 24.6995 	 47.1482 	 
C 	 37.4614 	 24.3309 	 47.9038 	 
C 	 37.7464 	 22.9258 	 47.9947 	 
C 	 36.7453 	 22.1438 	 47.4405 	 
H 	 38.5514 	 22.4553 	 48.5383 	 
C 	 38.4478 	 25.3271 	 48.5023 	 
H 	 38.3167 	 26.2702 	 47.9505 	 
H 	 39.3842 	 24.9691 	 48.2298 	 
C 	 38.1771 	 25.7087 	 49.929 	 
H 	 37.2613 	 26.3451 	 49.9986 	 
H 	 37.9989 	 24.8162 	 50.5473 	 
C 	 39.3404 	 26.4104 	 50.5946 	 
H 	 39.8496 	 27.0488 	 49.881 	 
H 	 39.1109 	 27.0694 	 51.3866 	 
H 	 40.1216 	 25.6404 	 50.7608 	 
S 	 37.1626 	 19.844 	 45.8623 	 
C 	 36.8181 	 18.2905 	 46.5697 	 
C 	 36.6599 	 18.3668 	 47.9048 	 
C 	 36.6497 	 19.7552 	 48.3664 	 
C 	 36.711 	 20.66 	 47.3601 	 
H 	 36.482 	 17.4332 	 48.4929 	 
C 	 36.3776 	 20.1037 	 49.8055 	 
H 	 35.3071 	 19.8431 	 49.8763 	 
H 	 36.5437 	 21.1667 	 50.0122 	 
C 	 37.2682 	 19.3021 	 50.7984 	 
H 	 38.3667 	 19.5411 	 50.8497 	 
H 	 37.3152 	 18.2699 	 50.4252 	 
C 	 36.6178 	 19.2191 	 52.1896 	 
H 	 37.325 	 18.5176 	 52.6751 	 
H 	 35.6355 	 18.7734 	 52.2073 	 
H 	 36.5565 	 20.2657 	 52.6366 	 
H 	 36.0619 	 25.6407 	 46.8269 	 
H 	 36.8715 	 17.3476 	 46.074 	 
