34

S 	 13.156 	 -15.2469 	 81.0641 	 
C 	 14.3873 	 -16.2852 	 80.3257 	 
C 	 14.5803 	 -15.9038 	 79.0293 	 
C 	 13.8281 	 -14.726 	 78.6349 	 
C 	 12.9222 	 -14.3194 	 79.5646 	 
H 	 13.8657 	 -14.2229 	 77.7267 	 
C 	 15.5227 	 -16.6245 	 78.0453 	 
H 	 15.6445 	 -17.6528 	 78.4003 	 
H 	 16.5152 	 -16.1445 	 78.1124 	 
C 	 15.1217 	 -16.6106 	 76.5781 	 
H 	 14.0555 	 -16.8424 	 76.4489 	 
H 	 15.3274 	 -15.5608 	 76.2299 	 
C 	 15.9569 	 -17.4281 	 75.5729 	 
H 	 16.2281 	 -18.4179 	 75.9205 	 
H 	 15.5784 	 -17.4607 	 74.5543 	 
H 	 16.9787 	 -16.9862 	 75.5437 	 
S 	 12.6423 	 -11.5398 	 79.3936 	 
C 	 11.1247 	 -10.7813 	 79.7065 	 
C 	 10.1364 	 -11.7368 	 79.8518 	 
C 	 10.5942 	 -13.0917 	 79.6467 	 
C 	 11.955 	 -13.2028 	 79.4854 	 
H 	 9.13942 	 -11.3354 	 79.9807 	 
C 	 9.56987 	 -14.2192 	 79.7175 	 
H 	 9.89576 	 -14.8815 	 78.9383 	 
H 	 8.6157 	 -13.8273 	 79.3338 	 
C 	 9.19047 	 -14.8661 	 81.0816 	 
H 	 8.81702 	 -14.0826 	 81.7382 	 
H 	 10.0896 	 -15.2318 	 81.5578 	 
C 	 8.21734 	 -16.0014 	 80.8794 	 
H 	 7.37028 	 -15.5354 	 80.2409 	 
H 	 7.68066 	 -16.2806 	 81.7712 	 
H 	 8.69215 	 -16.786 	 80.2604 	 
H 	 14.957 	 -17.0629 	 80.8894 	 
H 	 10.8735 	 -9.7267 	 79.765 	 
