34

S 	 37.6349 	 13.1721 	 80.6445 	 
C 	 36.7158 	 14.5689 	 81.102 	 
C 	 37.0507 	 15.7233 	 80.365 	 
C 	 37.9891 	 15.3548 	 79.3841 	 
C 	 38.4857 	 14.1102 	 79.5315 	 
H 	 38.3382 	 15.9604 	 78.5529 	 
C 	 36.4261 	 17.1105 	 80.5441 	 
H 	 35.4171 	 16.9293 	 81.0241 	 
H 	 36.1773 	 17.5478 	 79.5763 	 
C 	 37.2951 	 18.0513 	 81.3055 	 
H 	 37.7697 	 17.6208 	 82.1383 	 
H 	 38.0122 	 18.2519 	 80.5586 	 
C 	 36.4718 	 19.3036 	 81.7257 	 
H 	 36.3234 	 19.9432 	 80.8346 	 
H 	 35.5077 	 18.9111 	 81.99 	 
H 	 36.9184 	 19.8137 	 82.6175 	 
S 	 39.2196 	 11.9699 	 77.9268 	 
C 	 40.7062 	 11.9991 	 77.0613 	 
C 	 41.402 	 13.1849 	 77.1948 	 
C 	 40.7474 	 13.9953 	 78.195 	 
C 	 39.5436 	 13.5254 	 78.6872 	 
H 	 42.3934 	 13.2773 	 76.7339 	 
C 	 41.3566 	 15.3628 	 78.6145 	 
H 	 40.7035 	 16.0344 	 79.1296 	 
H 	 41.6627 	 15.7517 	 77.6559 	 
C 	 42.4923 	 15.1142 	 79.6021 	 
H 	 43.0887 	 16.0327 	 79.6529 	 
H 	 43.153 	 14.4165 	 79.1143 	 
C 	 42.1513 	 14.7434 	 81.0245 	 
H 	 41.6614 	 15.5511 	 81.5643 	 
H 	 43.0144 	 14.4828 	 81.669 	 
H 	 41.508 	 13.8841 	 81.0552 	 
H 	 35.8182 	 14.4863 	 81.7382 	 
H 	 41.0932 	 11.071 	 76.6723 	 
