34

S 	 -23.139 	 30.5837 	 44.853 	 
C 	 -21.7088 	 30.4633 	 45.9731 	 
C 	 -20.5163 	 30.5679 	 45.3384 	 
C 	 -20.6637 	 30.7235 	 43.9241 	 
C 	 -21.9748 	 30.7778 	 43.5192 	 
H 	 -19.8286 	 30.9309 	 43.2432 	 
C 	 -19.1353 	 30.5756 	 46.0235 	 
H 	 -18.4683 	 30.3447 	 45.2378 	 
H 	 -19.1132 	 29.7183 	 46.7037 	 
C 	 -18.5649 	 31.8074 	 46.73 	 
H 	 -18.5471 	 32.5596 	 45.9872 	 
H 	 -19.3001 	 32.0044 	 47.448 	 
C 	 -17.2089 	 31.3776 	 47.3528 	 
H 	 -16.6375 	 30.6884 	 46.8064 	 
H 	 -16.4859 	 32.2049 	 47.588 	 
H 	 -17.4951 	 30.7263 	 48.1372 	 
S 	 -23.5148 	 32.2718 	 41.7344 	 
C 	 -23.6507 	 31.7416 	 40.1247 	 
C 	 -22.6995 	 30.7499 	 39.799 	 
C 	 -21.9791 	 30.3063 	 40.9319 	 
C 	 -22.4099 	 30.939 	 42.1213 	 
H 	 -22.6503 	 30.362 	 38.7922 	 
C 	 -20.9591 	 29.2051 	 40.7886 	 
H 	 -21.3116 	 28.6849 	 39.8857 	 
H 	 -21.0982 	 28.5657 	 41.7051 	 
C 	 -19.5053 	 29.6502 	 40.6213 	 
H 	 -19.2871 	 30.2168 	 41.475 	 
H 	 -19.5071 	 30.2465 	 39.7012 	 
C 	 -18.4811 	 28.6005 	 40.5409 	 
H 	 -18.5773 	 28.0932 	 41.4384 	 
H 	 -17.445 	 29.0418 	 40.3449 	 
H 	 -18.6826 	 27.8424 	 39.7578 	 
H 	 -21.7501 	 30.3393 	 47.0208 	 
H 	 -24.3536 	 32.1943 	 39.3857 	 
