34

S 	 -117.631 	 46.3158 	 134.319 	 
C 	 -118.588 	 47.2975 	 135.348 	 
C 	 -117.791 	 48.1046 	 136.081 	 
C 	 -116.362 	 47.8695 	 135.869 	 
C 	 -116.074 	 46.8039 	 135.02 	 
H 	 -115.584 	 48.3505 	 136.454 	 
C 	 -118.305 	 49.0844 	 137.036 	 
H 	 -117.619 	 49.2396 	 137.815 	 
H 	 -119.136 	 48.6059 	 137.618 	 
C 	 -118.728 	 50.4813 	 136.554 	 
H 	 -119.02 	 51.1775 	 137.365 	 
H 	 -117.847 	 51.0976 	 136.115 	 
C 	 -119.781 	 50.6298 	 135.452 	 
H 	 -120.725 	 50.3432 	 135.796 	 
H 	 -119.744 	 51.6172 	 135.034 	 
H 	 -119.384 	 49.9659 	 134.593 	 
S 	 -114.704 	 44.3705 	 135.44 	 
C 	 -112.971 	 44.4217 	 135.319 	 
C 	 -112.5 	 45.579 	 134.837 	 
C 	 -113.487 	 46.6102 	 134.655 	 
C 	 -114.784 	 46.0972 	 134.919 	 
H 	 -111.462 	 45.643 	 134.631 	 
C 	 -113.102 	 47.8494 	 133.919 	 
H 	 -111.965 	 47.8394 	 133.768 	 
H 	 -113.171 	 48.6471 	 134.622 	 
C 	 -113.796 	 48.1355 	 132.563 	 
H 	 -114.89 	 48.1257 	 132.756 	 
H 	 -113.422 	 47.3932 	 131.839 	 
C 	 -113.466 	 49.4899 	 131.947 	 
H 	 -113.946 	 49.6411 	 130.915 	 
H 	 -112.374 	 49.6759 	 131.954 	 
H 	 -113.892 	 50.2778 	 132.491 	 
H 	 -119.684 	 47.3209 	 135.422 	 
H 	 -112.318 	 43.5104 	 135.27 	 
