34

S 	 -3.88647 	 -10.7925 	 70.1257 	 
C 	 -4.2962 	 -11.6817 	 68.6645 	 
C 	 -4.30947 	 -10.8886 	 67.5173 	 
C 	 -4.21459 	 -9.50768 	 67.8625 	 
C 	 -3.84043 	 -9.29566 	 69.2065 	 
H 	 -4.24154 	 -8.6828 	 67.149 	 
C 	 -4.5155 	 -11.444 	 66.1159 	 
H 	 -3.80602 	 -12.259 	 66.0641 	 
H 	 -4.44253 	 -10.6019 	 65.409 	 
C 	 -5.96559 	 -12.0578 	 65.8417 	 
H 	 -5.89165 	 -12.9965 	 65.3751 	 
H 	 -6.59509 	 -12.2178 	 66.7194 	 
C 	 -6.86157 	 -11.1763 	 64.9749 	 
H 	 -7.77968 	 -11.6105 	 64.8657 	 
H 	 -7.08151 	 -10.1923 	 65.396 	 
H 	 -6.54077 	 -10.8852 	 63.975 	 
S 	 -4.59125 	 -7.78856 	 71.3897 	 
C 	 -3.62913 	 -6.38823 	 71.7842 	 
C 	 -2.75347 	 -6.0962 	 70.7404 	 
C 	 -2.7173 	 -7.01132 	 69.7026 	 
C 	 -3.63167 	 -8.06946 	 69.8976 	 
H 	 -2.17003 	 -5.17968 	 70.6737 	 
C 	 -1.83146 	 -6.81257 	 68.5135 	 
H 	 -1.82978 	 -7.73068 	 67.9309 	 
H 	 -0.835821 	 -6.5674 	 68.8706 	 
C 	 -2.34474 	 -5.74198 	 67.5265 	 
H 	 -2.37952 	 -4.71715 	 68.0389 	 
H 	 -3.40819 	 -5.86808 	 67.4001 	 
C 	 -1.56387 	 -5.67189 	 66.2122 	 
H 	 -1.59709 	 -6.66403 	 65.7652 	 
H 	 -0.50366 	 -5.40104 	 66.4959 	 
H 	 -1.83298 	 -4.93004 	 65.4671 	 
H 	 -4.20803 	 -12.7637 	 68.5417 	 
H 	 -3.73497 	 -5.66098 	 72.5646 	 
