34

S 	 70.9757 	 28.2935 	 73.1293 	 
C 	 70.2778 	 28.6001 	 71.5678 	 
C 	 70.4792 	 27.4857 	 70.7681 	 
C 	 71.2377 	 26.4315 	 71.3263 	 
C 	 71.6525 	 26.7276 	 72.6073 	 
H 	 71.3941 	 25.4667 	 70.8233 	 
C 	 69.8654 	 27.3303 	 69.3968 	 
H 	 69.9213 	 28.3598 	 68.9857 	 
H 	 68.826 	 26.9791 	 69.4722 	 
C 	 70.735 	 26.5778 	 68.3345 	 
H 	 71.7944 	 26.8323 	 68.396 	 
H 	 70.6883 	 25.5287 	 68.6695 	 
C 	 70.2683 	 26.7981 	 66.8569 	 
H 	 71.0496 	 26.5528 	 66.1976 	 
H 	 69.3328 	 26.4048 	 66.6166 	 
H 	 70.0417 	 27.9316 	 66.7617 	 
S 	 73.3983 	 26.6294 	 74.5972 	 
C 	 73.8712 	 25.0799 	 75.2745 	 
C 	 73.1301 	 24.0287 	 74.8047 	 
C 	 72.201 	 24.4924 	 73.7656 	 
C 	 72.2371 	 25.8354 	 73.5983 	 
H 	 73.3061 	 22.9596 	 75.0672 	 
C 	 71.1651 	 23.4794 	 73.2007 	 
H 	 70.5661 	 24.0997 	 72.5567 	 
H 	 70.5616 	 23.2172 	 74.0791 	 
C 	 71.6363 	 22.2129 	 72.487 	 
H 	 70.74 	 21.9861 	 71.8912 	 
H 	 71.7225 	 21.3753 	 73.2264 	 
C 	 72.9795 	 22.4531 	 71.7107 	 
H 	 72.9595 	 23.3811 	 71.1335 	 
H 	 73.1868 	 21.6639 	 70.9474 	 
H 	 73.8214 	 22.4299 	 72.4061 	 
H 	 69.5135 	 29.3378 	 71.321 	 
H 	 74.7182 	 24.9168 	 75.9241 	 
