34

S 	 -85.4641 	 49.1667 	 128.535 	 
C 	 -86.9182 	 48.5368 	 129.276 	 
C 	 -87.3979 	 49.3176 	 130.368 	 
C 	 -86.4857 	 50.4806 	 130.561 	 
C 	 -85.3301 	 50.4864 	 129.768 	 
H 	 -86.6413 	 51.2401 	 131.271 	 
C 	 -88.6942 	 49.0511 	 131.13 	 
H 	 -89.5432 	 48.9238 	 130.458 	 
H 	 -88.8152 	 49.9247 	 131.707 	 
C 	 -88.6271 	 47.8934 	 132.129 	 
H 	 -89.4592 	 48.1215 	 132.791 	 
H 	 -88.8619 	 46.9562 	 131.638 	 
C 	 -87.419 	 47.6403 	 132.949 	 
H 	 -86.6702 	 47.1073 	 132.36 	 
H 	 -87.0483 	 48.5165 	 133.44 	 
H 	 -87.5205 	 46.9307 	 133.726 	 
S 	 -83.6656 	 52.195 	 128.379 	 
C 	 -82.3506 	 52.9949 	 129.212 	 
C 	 -82.3475 	 52.7369 	 130.546 	 
C 	 -83.4315 	 51.8652 	 130.922 	 
C 	 -84.1707 	 51.3517 	 129.853 	 
H 	 -81.6716 	 53.1778 	 131.321 	 
C 	 -83.4225 	 51.5617 	 132.407 	 
H 	 -84.4289 	 51.3692 	 132.761 	 
H 	 -83.1317 	 52.4571 	 133.043 	 
C 	 -82.4328 	 50.409 	 132.785 	 
H 	 -82.4201 	 50.3214 	 133.82 	 
H 	 -81.4532 	 50.7175 	 132.331 	 
C 	 -82.8909 	 49.1144 	 132.236 	 
H 	 -82.2366 	 48.303 	 132.591 	 
H 	 -82.9168 	 49.2397 	 131.217 	 
H 	 -83.8793 	 48.8763 	 132.508 	 
H 	 -87.4049 	 47.6107 	 128.997 	 
H 	 -81.7419 	 53.7586 	 128.801 	 
