34

S 	 -16.1828 	 48.5765 	 44.2009 	 
C 	 -17.5806 	 48.1923 	 43.193 	 
C 	 -17.4481 	 47.0503 	 42.3796 	 
C 	 -16.3189 	 46.3289 	 42.86 	 
C 	 -15.6448 	 46.9105 	 43.9915 	 
H 	 -16.0039 	 45.3459 	 42.548 	 
C 	 -18.5221 	 46.492 	 41.4076 	 
H 	 -18.0821 	 46.6985 	 40.4805 	 
H 	 -19.405 	 47.1066 	 41.4596 	 
C 	 -18.9121 	 44.9621 	 41.4194 	 
H 	 -18.0244 	 44.4185 	 41.5393 	 
H 	 -19.5699 	 44.7452 	 42.3081 	 
C 	 -19.5677 	 44.5205 	 40.1138 	 
H 	 -20.6268 	 44.6534 	 39.9929 	 
H 	 -18.9855 	 44.7762 	 39.1774 	 
H 	 -19.5429 	 43.4385 	 40.2781 	 
S 	 -14.7653 	 46.6289 	 46.6254 	 
C 	 -13.5789 	 45.5592 	 47.0584 	 
C 	 -13.0185 	 44.9754 	 45.9356 	 
C 	 -13.6947 	 45.2977 	 44.6954 	 
C 	 -14.7538 	 46.1887 	 44.9269 	 
H 	 -12.1278 	 44.3555 	 46.0821 	 
C 	 -13.1845 	 44.8305 	 43.3596 	 
H 	 -12.0641 	 44.9511 	 43.3826 	 
H 	 -13.5832 	 45.5324 	 42.5536 	 
C 	 -13.4734 	 43.3478 	 43.0292 	 
H 	 -14.5719 	 43.3395 	 43.0593 	 
H 	 -13.1099 	 42.5745 	 43.8003 	 
C 	 -13.1424 	 42.9439 	 41.5589 	 
H 	 -12.0706 	 43.0411 	 41.4344 	 
H 	 -13.738 	 43.5633 	 40.9043 	 
H 	 -13.3867 	 41.8924 	 41.4049 	 
H 	 -18.4089 	 48.8646 	 43.0208 	 
H 	 -13.1391 	 45.2901 	 48.0026 	 
