34

S 	 48.5145 	 20.9198 	 87.9213 	 
C 	 48.0394 	 22.2854 	 88.9548 	 
C 	 48.5692 	 23.5272 	 88.6313 	 
C 	 49.4726 	 23.3534 	 87.522 	 
C 	 49.4933 	 22.0456 	 87.0238 	 
H 	 50.1404 	 24.0324 	 86.97 	 
C 	 48.6191 	 24.7482 	 89.5893 	 
H 	 47.5706 	 25.1925 	 89.6041 	 
H 	 49.1524 	 25.573 	 89.1086 	 
C 	 49.1275 	 24.5441 	 90.9951 	 
H 	 48.9719 	 25.4873 	 91.4547 	 
H 	 48.4952 	 23.875 	 91.5719 	 
C 	 50.632 	 24.1641 	 91.027 	 
H 	 51.0371 	 23.5306 	 90.2182 	 
H 	 51.1839 	 25.079 	 91.1225 	 
H 	 50.9441 	 23.6983 	 91.9736 	 
S 	 49.1059 	 20.7258 	 84.72 	 
C 	 50.3369 	 20.5982 	 83.5096 	 
C 	 51.5296 	 21.1611 	 83.879 	 
C 	 51.4014 	 21.8008 	 85.1814 	 
C 	 50.1405 	 21.5944 	 85.7841 	 
H 	 52.3364 	 21.0598 	 83.2686 	 
C 	 52.5366 	 22.5941 	 85.8226 	 
H 	 52.2321 	 23.3354 	 86.582 	 
H 	 53.0325 	 23.1808 	 85.0555 	 
C 	 53.5735 	 21.6451 	 86.5453 	 
H 	 54.0848 	 20.8592 	 85.8403 	 
H 	 53.0969 	 20.9795 	 87.3125 	 
C 	 54.5866 	 22.4338 	 87.3657 	 
H 	 55.1617 	 21.6666 	 87.9437 	 
H 	 54.1778 	 23.1753 	 88.0773 	 
H 	 55.2724 	 22.9716 	 86.6507 	 
H 	 47.1481 	 22.257 	 89.6869 	 
H 	 50.1 	 20.2301 	 82.5443 	 
