34

S 	 26.5898 	 34.0082 	 56.0795 	 
C 	 26.3795 	 32.384 	 55.4828 	 
C 	 27.3879 	 31.9214 	 54.6736 	 
C 	 28.3733 	 32.9065 	 54.5553 	 
C 	 28.2229 	 34.0506 	 55.3198 	 
H 	 29.2417 	 32.8089 	 53.8463 	 
C 	 27.4597 	 30.5261 	 54.0887 	 
H 	 27.1712 	 29.9829 	 54.9694 	 
H 	 28.5059 	 30.2309 	 53.9611 	 
C 	 26.6075 	 30.2509 	 52.8609 	 
H 	 25.5929 	 30.2659 	 53.1881 	 
H 	 26.6122 	 31.1268 	 52.2102 	 
C 	 26.8649 	 28.9974 	 52.1265 	 
H 	 26.0682 	 28.7174 	 51.4454 	 
H 	 27.8103 	 29.2065 	 51.4979 	 
H 	 26.9295 	 28.1947 	 52.9091 	 
S 	 28.589 	 36.9194 	 55.2933 	 
C 	 30.1353 	 37.5634 	 55.655 	 
C 	 31.0601 	 36.5632 	 55.6056 	 
C 	 30.4622 	 35.267 	 55.5256 	 
C 	 29.0704 	 35.2197 	 55.47 	 
H 	 32.1584 	 36.7793 	 55.6225 	 
C 	 31.4047 	 34.0355 	 55.7413 	 
H 	 30.6968 	 33.148 	 55.7684 	 
H 	 31.7568 	 34.1101 	 56.7462 	 
C 	 32.5978 	 33.7807 	 54.7562 	 
H 	 33.086 	 32.8178 	 54.992 	 
H 	 33.381 	 34.5324 	 54.888 	 
C 	 32.2072 	 33.8573 	 53.2957 	 
H 	 31.9333 	 34.8836 	 53.1298 	 
H 	 31.3155 	 33.2494 	 53.1185 	 
H 	 33.0173 	 33.5847 	 52.5606 	 
H 	 25.4594 	 31.8731 	 55.6382 	 
H 	 30.4729 	 38.6134 	 55.4819 	 
