34

S 	 -12.439 	 71.6528 	 47.6267 	 
C 	 -12.9743 	 71.1453 	 46.122 	 
C 	 -14.3559 	 71.127 	 46.0698 	 
C 	 -14.9209 	 71.6888 	 47.2504 	 
C 	 -14.0286 	 72.0973 	 48.17 	 
H 	 -15.9598 	 71.758 	 47.5159 	 
C 	 -15.2262 	 70.6293 	 44.8814 	 
H 	 -14.8034 	 70.8476 	 43.8836 	 
H 	 -16.1411 	 71.2262 	 44.9714 	 
C 	 -15.5643 	 69.1371 	 44.8866 	 
H 	 -14.6219 	 68.6727 	 45.177 	 
H 	 -16.1951 	 68.9472 	 45.7461 	 
C 	 -15.9691 	 68.6198 	 43.4398 	 
H 	 -15.2724 	 68.9976 	 42.7065 	 
H 	 -15.9928 	 67.5212 	 43.4034 	 
H 	 -16.9705 	 69.01 	 43.1568 	 
S 	 -13.3293 	 72.0595 	 50.9567 	 
C 	 -14.4835 	 72.8084 	 52.0632 	 
C 	 -15.4824 	 73.4912 	 51.3745 	 
C 	 -15.3741 	 73.3843 	 49.9189 	 
C 	 -14.364 	 72.4967 	 49.5502 	 
H 	 -16.2877 	 74.0369 	 51.8286 	 
C 	 -16.2992 	 74.2464 	 49.0751 	 
H 	 -17.3107 	 73.7376 	 49.1962 	 
H 	 -16.0938 	 73.9783 	 48.0135 	 
C 	 -16.2838 	 75.7701 	 49.2893 	 
H 	 -15.2973 	 76.161 	 49.0133 	 
H 	 -16.4133 	 75.9054 	 50.3553 	 
C 	 -17.4639 	 76.4405 	 48.4771 	 
H 	 -18.2873 	 75.7906 	 48.5956 	 
H 	 -17.2226 	 76.5935 	 47.3864 	 
H 	 -17.7808 	 77.4181 	 48.8276 	 
H 	 -12.2738 	 70.7582 	 45.4323 	 
H 	 -14.3412 	 72.8872 	 53.1606 	 
