34

S 	 -51.8842 	 43.3598 	 106.306 	 
C 	 -51.0405 	 44.9419 	 106.493 	 
C 	 -51.9205 	 45.9526 	 106.774 	 
C 	 -53.2689 	 45.4137 	 106.835 	 
C 	 -53.4533 	 44.022 	 106.623 	 
H 	 -54.1906 	 45.8753 	 107 	 
C 	 -51.5606 	 47.4135 	 107.227 	 
H 	 -50.6199 	 47.7153 	 106.719 	 
H 	 -51.3786 	 47.4436 	 108.301 	 
C 	 -52.7525 	 48.4156 	 106.879 	 
H 	 -53.0314 	 48.4507 	 105.863 	 
H 	 -53.5721 	 48.1014 	 107.387 	 
C 	 -52.3406 	 49.7756 	 107.417 	 
H 	 -51.7761 	 49.7342 	 108.333 	 
H 	 -51.7424 	 50.3125 	 106.687 	 
H 	 -53.2505 	 50.3915 	 107.512 	 
S 	 -55.2161 	 42.3941 	 105.33 	 
C 	 -56.5661 	 41.7025 	 106.213 	 
C 	 -56.5868 	 42.2006 	 107.47 	 
C 	 -55.4822 	 42.8862 	 107.886 	 
C 	 -54.6291 	 43.1838 	 106.814 	 
H 	 -57.4492 	 41.8393 	 108.001 	 
C 	 -55.2595 	 43.3946 	 109.386 	 
H 	 -56.1796 	 43.2666 	 109.95 	 
H 	 -55.0019 	 44.4316 	 109.406 	 
C 	 -54.218 	 42.5739 	 110.139 	 
H 	 -54.194 	 42.9103 	 111.143 	 
H 	 -53.2575 	 42.781 	 109.747 	 
C 	 -54.5608 	 41.0329 	 110.353 	 
H 	 -54.3701 	 40.6175 	 109.365 	 
H 	 -55.5107 	 40.796 	 110.825 	 
H 	 -53.7693 	 40.6651 	 111.07 	 
H 	 -50.0159 	 45.1588 	 106.183 	 
H 	 -57.3603 	 41.1343 	 105.766 	 
