34

S 	 -41.9766 	 23.9713 	 79.7369 	 
C 	 -41.7818 	 25.6279 	 80.2948 	 
C 	 -40.7874 	 26.2018 	 79.5812 	 
C 	 -40.1532 	 25.245 	 78.6764 	 
C 	 -40.6073 	 23.9545 	 78.6617 	 
H 	 -39.213 	 25.4422 	 78.1156 	 
C 	 -40.2023 	 27.5949 	 79.8294 	 
H 	 -40.9924 	 28.1771 	 80.3331 	 
H 	 -39.7468 	 28.0055 	 78.9098 	 
C 	 -39.0039 	 27.5361 	 80.7496 	 
H 	 -39.4466 	 26.967 	 81.6161 	 
H 	 -38.065 	 27.055 	 80.4463 	 
C 	 -38.5424 	 28.9499 	 81.2319 	 
H 	 -38.3444 	 29.364 	 80.2063 	 
H 	 -39.2202 	 29.642 	 81.7532 	 
H 	 -37.655 	 28.892 	 81.8024 	 
S 	 -40.1068 	 21.3038 	 78.8877 	 
C 	 -39.7031 	 20.4066 	 77.436 	 
C 	 -39.4082 	 21.1881 	 76.3446 	 
C 	 -39.8307 	 22.547 	 76.6025 	 
C 	 -40.0819 	 22.7612 	 77.9412 	 
H 	 -38.9468 	 20.7173 	 75.5067 	 
C 	 -39.8251 	 23.5737 	 75.504 	 
H 	 -39.033 	 23.4612 	 74.7329 	 
H 	 -39.6675 	 24.552 	 75.9378 	 
C 	 -41.1473 	 23.5784 	 74.6716 	 
H 	 -42.0463 	 23.5069 	 75.3445 	 
H 	 -41.0855 	 22.8233 	 73.9343 	 
C 	 -41.2458 	 24.9474 	 73.903 	 
H 	 -40.5134 	 25.0987 	 73.1736 	 
H 	 -41.2819 	 25.7563 	 74.5198 	 
H 	 -42.2044 	 24.8603 	 73.4151 	 
H 	 -42.2824 	 26.0746 	 81.1633 	 
H 	 -39.3278 	 19.4021 	 77.507 	 
