34

S 	 5.33997 	 -8.34416 	 75.4329 	 
C 	 3.90728 	 -8.82004 	 76.2419 	 
C 	 3.27644 	 -9.90217 	 75.6434 	 
C 	 4.08623 	 -10.3609 	 74.5146 	 
C 	 5.31013 	 -9.67951 	 74.3969 	 
H 	 3.87047 	 -11.086 	 73.7561 	 
C 	 1.88854 	 -10.374 	 75.9667 	 
H 	 1.29354 	 -10.3061 	 75.0652 	 
H 	 1.48018 	 -9.67447 	 76.6969 	 
C 	 1.77329 	 -11.8861 	 76.3058 	 
H 	 2.37177 	 -12.4858 	 75.6037 	 
H 	 2.19911 	 -12.0817 	 77.2724 	 
C 	 0.293322 	 -12.4595 	 76.345 	 
H 	 0.304365 	 -13.5557 	 76.433 	 
H 	 -0.206261 	 -12.1586 	 77.2748 	 
H 	 -0.216485 	 -12.1851 	 75.4293 	 
S 	 6.31756 	 -8.51832 	 72.0988 	 
C 	 7.18518 	 -9.53598 	 70.9675 	 
C 	 7.25745 	 -10.878 	 71.4073 	 
C 	 6.72402 	 -10.9952 	 72.7407 	 
C 	 6.23485 	 -9.79956 	 73.2656 	 
H 	 7.73519 	 -11.6366 	 70.8588 	 
C 	 6.73046 	 -12.4472 	 73.3926 	 
H 	 5.95716 	 -13.012 	 73.0671 	 
H 	 6.58122 	 -12.2369 	 74.4467 	 
C 	 8.03093 	 -13.2467 	 73.2437 	 
H 	 8.97234 	 -12.6726 	 73.526 	 
H 	 8.04887 	 -13.7034 	 72.248 	 
C 	 8.01293 	 -14.4776 	 74.1759 	 
H 	 7.69248 	 -15.3583 	 73.6596 	 
H 	 7.33254 	 -14.3156 	 75.0341 	 
H 	 8.98976 	 -14.7752 	 74.6499 	 
H 	 3.43137 	 -8.25734 	 76.9592 	 
H 	 7.57104 	 -9.21823 	 70.0396 	 
