34

S 	 -42.5467 	 54.7775 	 113.275 	 
C 	 -43.8484 	 54.3706 	 112.199 	 
C 	 -43.5091 	 54.6936 	 110.851 	 
C 	 -42.1144 	 55.1822 	 110.733 	 
C 	 -41.4335 	 55.2168 	 111.961 	 
H 	 -41.7315 	 55.6612 	 109.852 	 
C 	 -44.4866 	 54.6153 	 109.678 	 
H 	 -45.5318 	 54.2746 	 109.891 	 
H 	 -44.1848 	 53.8121 	 108.988 	 
C 	 -44.5118 	 55.97 	 108.783 	 
H 	 -43.5691 	 56.1346 	 108.264 	 
H 	 -45.269 	 55.9462 	 108.024 	 
C 	 -44.8378 	 57.0691 	 109.758 	 
H 	 -45.8979 	 56.9758 	 110.105 	 
H 	 -44.2387 	 57.132 	 110.588 	 
H 	 -44.8974 	 57.9901 	 109.215 	 
S 	 -40.0709 	 57.2958 	 113.009 	 
C 	 -38.2802 	 57.2336 	 113.1 	 
C 	 -37.856 	 56.2454 	 112.217 	 
C 	 -38.849 	 55.4055 	 111.671 	 
C 	 -40.1529 	 55.7639 	 112.175 	 
H 	 -36.8179 	 56.069 	 112.075 	 
C 	 -38.4458 	 54.2768 	 110.619 	 
H 	 -37.4745 	 54.5859 	 110.238 	 
H 	 -39.0787 	 54.2965 	 109.736 	 
C 	 -38.5749 	 52.8428 	 111.119 	 
H 	 -39.4824 	 52.4483 	 111.501 	 
H 	 -37.8951 	 52.7509 	 111.986 	 
C 	 -37.9467 	 51.877 	 110.129 	 
H 	 -38.4177 	 51.9224 	 109.166 	 
H 	 -38.0758 	 50.825 	 110.364 	 
H 	 -36.8995 	 52.0551 	 109.971 	 
H 	 -44.8947 	 54.2303 	 112.431 	 
H 	 -37.6698 	 58.0176 	 113.528 	 
