34

S 	 -79.679 	 45.8076 	 122.433 	 
C 	 -81.2878 	 45.6235 	 121.77 	 
C 	 -82.0614 	 44.7668 	 122.49 	 
C 	 -81.3219 	 44.0134 	 123.383 	 
C 	 -79.9755 	 44.3621 	 123.428 	 
H 	 -81.6788 	 43.3519 	 124.097 	 
C 	 -83.5703 	 44.5678 	 122.295 	 
H 	 -83.8273 	 43.5399 	 122.361 	 
H 	 -83.7587 	 44.9909 	 121.307 	 
C 	 -84.4476 	 45.3794 	 123.22 	 
H 	 -85.4273 	 45.2147 	 122.675 	 
H 	 -84.44 	 44.9604 	 124.273 	 
C 	 -84.076 	 46.8617 	 123.359 	 
H 	 -83.2992 	 46.8963 	 124.072 	 
H 	 -83.9097 	 47.3323 	 122.37 	 
H 	 -85.0163 	 47.2416 	 123.831 	 
S 	 -78.3759 	 44.7679 	 125.578 	 
C 	 -77.5294 	 43.4257 	 126.239 	 
C 	 -77.5348 	 42.3722 	 125.384 	 
C 	 -78.4184 	 42.5372 	 124.313 	 
C 	 -79.0222 	 43.7773 	 124.334 	 
H 	 -76.9056 	 41.563 	 125.731 	 
C 	 -78.7723 	 41.3942 	 123.359 	 
H 	 -77.8084 	 41.0302 	 122.948 	 
H 	 -79.2977 	 41.844 	 122.544 	 
C 	 -79.6489 	 40.3632 	 124.012 	 
H 	 -80.4842 	 40.9722 	 124.432 	 
H 	 -79.3591 	 39.6743 	 124.793 	 
C 	 -80.333 	 39.3768 	 123.014 	 
H 	 -79.6726 	 38.8796 	 122.256 	 
H 	 -81.0414 	 39.9479 	 122.415 	 
H 	 -80.9102 	 38.4771 	 123.369 	 
H 	 -81.6702 	 46.3504 	 121.005 	 
H 	 -76.7784 	 43.583 	 127.021 	 
