34

S 	 -29.2247 	 65.5148 	 102.32 	 
C 	 -27.7499 	 66.1212 	 101.572 	 
C 	 -26.6081 	 65.6752 	 102.27 	 
C 	 -26.9826 	 65.0556 	 103.51 	 
C 	 -28.3423 	 64.8318 	 103.649 	 
H 	 -26.3084 	 64.7744 	 104.342 	 
C 	 -25.1568 	 65.9495 	 101.859 	 
H 	 -24.7773 	 66.7024 	 102.558 	 
H 	 -25.2031 	 66.4586 	 100.893 	 
C 	 -24.2058 	 64.7188 	 101.688 	 
H 	 -23.1078 	 65.0376 	 101.701 	 
H 	 -24.3772 	 64.1624 	 102.579 	 
C 	 -24.5816 	 63.8414 	 100.522 	 
H 	 -24.2297 	 64.3089 	 99.5905 	 
H 	 -23.9719 	 62.9085 	 100.708 	 
H 	 -25.6011 	 63.4029 	 100.468 	 
S 	 -30.1256 	 65.1069 	 105.768 	 
C 	 -30.5766 	 63.6959 	 106.756 	 
C 	 -29.6186 	 62.7018 	 106.499 	 
C 	 -28.6687 	 62.9229 	 105.434 	 
C 	 -28.9191 	 64.1689 	 104.84 	 
H 	 -29.771 	 61.7039 	 107.047 	 
C 	 -27.7112 	 61.931 	 104.867 	 
H 	 -26.9577 	 62.4929 	 104.356 	 
H 	 -28.3109 	 61.3045 	 104.22 	 
C 	 -26.9388 	 61.0805 	 105.888 	 
H 	 -26.2502 	 60.4225 	 105.408 	 
H 	 -27.5908 	 60.375 	 106.429 	 
C 	 -26.0504 	 61.8905 	 106.754 	 
H 	 -26.7511 	 62.3829 	 107.395 	 
H 	 -25.3635 	 62.597 	 106.211 	 
H 	 -25.4096 	 61.1634 	 107.362 	 
H 	 -27.5827 	 66.5016 	 100.532 	 
H 	 -31.3969 	 63.394 	 107.439 	 
