34

S 	 -23.5809 	 30.9839 	 41.7383 	 
C 	 -22.4872 	 30.9777 	 43.1464 	 
C 	 -21.6911 	 32.1065 	 43.1738 	 
C 	 -21.8573 	 32.8633 	 41.9796 	 
C 	 -22.7597 	 32.3613 	 41.0888 	 
H 	 -21.3485 	 33.7888 	 41.7609 	 
C 	 -20.5572 	 32.4034 	 44.1834 	 
H 	 -20.3698 	 31.5141 	 44.7726 	 
H 	 -20.9591 	 33.1935 	 44.7921 	 
C 	 -19.2656 	 32.7669 	 43.502 	 
H 	 -19.1177 	 32.0295 	 42.6863 	 
H 	 -19.2315 	 33.7693 	 43.0942 	 
C 	 -18.1643 	 32.6926 	 44.6171 	 
H 	 -18.1569 	 31.7294 	 45.1195 	 
H 	 -17.1617 	 32.8275 	 44.1914 	 
H 	 -18.3525 	 33.4254 	 45.4133 	 
S 	 -24.798 	 33.5906 	 39.6065 	 
C 	 -24.4872 	 34.227 	 38.0236 	 
C 	 -23.1683 	 34.0991 	 37.7666 	 
C 	 -22.3735 	 33.4421 	 38.781 	 
C 	 -23.1512 	 33.0365 	 39.864 	 
H 	 -22.8362 	 34.3462 	 36.7627 	 
C 	 -20.9123 	 33.1974 	 38.4823 	 
H 	 -20.717 	 33.2855 	 37.4308 	 
H 	 -20.471 	 32.2835 	 38.8406 	 
C 	 -20.0901 	 34.3058 	 39.0158 	 
H 	 -20.1669 	 34.3574 	 40.1186 	 
H 	 -20.4946 	 35.2448 	 38.6991 	 
C 	 -18.6561 	 34.3064 	 38.4627 	 
H 	 -17.9858 	 35.0329 	 38.9892 	 
H 	 -18.5991 	 34.3729 	 37.3753 	 
H 	 -18.162 	 33.3104 	 38.7636 	 
H 	 -22.4928 	 30.217 	 43.8909 	 
H 	 -25.3048 	 34.5751 	 37.377 	 
