34

S 	 -80.1958 	 44.2588 	 132.15 	 
C 	 -81.7781 	 44.1745 	 131.378 	 
C 	 -82.2477 	 45.4738 	 131.203 	 
C 	 -81.4338 	 46.5212 	 131.733 	 
C 	 -80.231 	 46.0315 	 132.218 	 
H 	 -81.6486 	 47.6083 	 131.722 	 
C 	 -83.4851 	 45.7423 	 130.462 	 
H 	 -83.8213 	 46.7407 	 130.787 	 
H 	 -84.2404 	 45.0828 	 130.891 	 
C 	 -83.3424 	 45.7399 	 128.925 	 
H 	 -84.2973 	 46.058 	 128.541 	 
H 	 -82.6209 	 46.4272 	 128.573 	 
C 	 -83.0831 	 44.3446 	 128.323 	 
H 	 -81.9899 	 44.2021 	 128.487 	 
H 	 -83.6168 	 43.5904 	 128.836 	 
H 	 -83.3527 	 44.3557 	 127.234 	 
S 	 -78.4588 	 48.1791 	 132.18 	 
C 	 -77.3709 	 48.389 	 133.437 	 
C 	 -77.4978 	 47.4645 	 134.436 	 
C 	 -78.498 	 46.4849 	 134.095 	 
C 	 -79.1686 	 46.7778 	 132.873 	 
H 	 -76.8776 	 47.4205 	 135.29 	 
C 	 -78.9162 	 45.3668 	 135.057 	 
H 	 -78.358 	 44.4954 	 134.852 	 
H 	 -79.9544 	 45.146 	 134.805 	 
C 	 -78.7762 	 45.6641 	 136.571 	 
H 	 -79.1694 	 46.6279 	 136.626 	 
H 	 -77.7633 	 45.6915 	 136.905 	 
C 	 -79.4686 	 44.6568 	 137.491 	 
H 	 -79.5277 	 45.0971 	 138.507 	 
H 	 -78.9016 	 43.7359 	 137.544 	 
H 	 -80.41 	 44.4808 	 137.1 	 
H 	 -82.1893 	 43.2478 	 130.997 	 
H 	 -76.5611 	 49.1158 	 133.488 	 
