34

S 	 -6.545 	 -13.2392 	 82.8024 	 
C 	 -5.47376 	 -13.3019 	 81.4439 	 
C 	 -4.2414 	 -12.7245 	 81.7633 	 
C 	 -4.29189 	 -12.0196 	 83.0274 	 
C 	 -5.517 	 -12.1972 	 83.7436 	 
H 	 -3.48521 	 -11.4668 	 83.5268 	 
C 	 -3.01158 	 -12.6736 	 80.8401 	 
H 	 -3.21177 	 -13.1168 	 79.8661 	 
H 	 -2.34586 	 -13.2435 	 81.3892 	 
C 	 -2.36481 	 -11.3408 	 80.6302 	 
H 	 -3.12102 	 -10.5434 	 80.5613 	 
H 	 -1.93814 	 -11.0775 	 81.5444 	 
C 	 -1.3327 	 -11.2862 	 79.4884 	 
H 	 -0.744654 	 -12.1885 	 79.4991 	 
H 	 -1.83219 	 -11.2819 	 78.5438 	 
H 	 -0.567157 	 -10.457 	 79.5955 	 
S 	 -4.6379 	 -12.8538 	 86.1924 	 
C 	 -4.84493 	 -11.6959 	 87.4948 	 
C 	 -5.52914 	 -10.6039 	 87.0963 	 
C 	 -5.84759 	 -10.6641 	 85.7288 	 
C 	 -5.5682 	 -11.8672 	 85.1366 	 
H 	 -5.74004 	 -9.79455 	 87.7494 	 
C 	 -6.63429 	 -9.53145 	 85.2057 	 
H 	 -7.23342 	 -9.04296 	 86.0717 	 
H 	 -7.42386 	 -9.9238 	 84.5291 	 
C 	 -5.75917 	 -8.52666 	 84.4113 	 
H 	 -5.22981 	 -9.14812 	 83.6886 	 
H 	 -4.94281 	 -8.02789 	 85.0359 	 
C 	 -6.58278 	 -7.66228 	 83.517 	 
H 	 -7.0836 	 -8.21897 	 82.763 	 
H 	 -5.93025 	 -6.94274 	 83.1044 	 
H 	 -7.37948 	 -7.24825 	 84.084 	 
H 	 -5.68335 	 -13.7843 	 80.4918 	 
H 	 -4.3244 	 -11.7651 	 88.4103 	 
