34

S 	 -2.91519 	 -9.87093 	 85.5855 	 
C 	 -1.69989 	 -10.5725 	 84.49 	 
C 	 -1.17843 	 -11.769 	 85.0071 	 
C 	 -1.67082 	 -12.0453 	 86.3058 	 
C 	 -2.57575 	 -11.1602 	 86.7468 	 
H 	 -1.40563 	 -12.8475 	 86.9881 	 
C 	 -0.101769 	 -12.6049 	 84.3685 	 
H 	 0.164579 	 -12.0922 	 83.4641 	 
H 	 -0.426185 	 -13.6114 	 84.2083 	 
C 	 1.24922 	 -12.6767 	 85.1752 	 
H 	 0.892855 	 -12.7263 	 86.2096 	 
H 	 1.78101 	 -13.5805 	 85.049 	 
C 	 2.12214 	 -11.4496 	 84.9777 	 
H 	 2.28883 	 -11.1966 	 83.9957 	 
H 	 1.7021 	 -10.6157 	 85.5525 	 
H 	 3.12777 	 -11.5724 	 85.2911 	 
S 	 -4.78718 	 -12.1011 	 88.0859 	 
C 	 -4.57641 	 -12.4919 	 89.7722 	 
C 	 -3.61387 	 -11.7675 	 90.4223 	 
C 	 -2.75921 	 -11.187 	 89.4141 	 
C 	 -3.20747 	 -11.2836 	 88.0519 	 
H 	 -3.40321 	 -12 	 91.4398 	 
C 	 -1.40963 	 -10.7545 	 89.6994 	 
H 	 -0.94201 	 -10.3454 	 88.8097 	 
H 	 -0.833392 	 -11.6139 	 90.0982 	 
C 	 -1.26457 	 -9.51522 	 90.7485 	 
H 	 -1.90211 	 -9.728 	 91.5711 	 
H 	 -1.71249 	 -8.64272 	 90.3085 	 
C 	 0.147244 	 -9.15603 	 91.1161 	 
H 	 0.68696 	 -9.85524 	 91.7678 	 
H 	 0.0997656 	 -8.19326 	 91.5473 	 
H 	 0.866745 	 -9.09999 	 90.2994 	 
H 	 -1.42214 	 -10.1402 	 83.4986 	 
H 	 -5.30382 	 -13.0229 	 90.2733 	 
