34

S 	 9.76661 	 -6.84505 	 88.4015 	 
C 	 10.8046 	 -5.83822 	 87.3289 	 
C 	 10.1002 	 -5.47686 	 86.2079 	 
C 	 8.90708 	 -6.30103 	 86.0551 	 
C 	 8.51876 	 -7.004 	 87.2057 	 
H 	 8.19381 	 -6.21388 	 85.2472 	 
C 	 10.5537 	 -4.50426 	 85.2043 	 
H 	 10.6366 	 -5.05919 	 84.2934 	 
H 	 11.5646 	 -4.14112 	 85.4569 	 
C 	 9.55886 	 -3.35897 	 85.0925 	 
H 	 9.64803 	 -2.84422 	 84.1553 	 
H 	 8.57657 	 -3.78637 	 85.1071 	 
C 	 9.63778 	 -2.35988 	 86.2684 	 
H 	 8.69617 	 -1.85587 	 86.5192 	 
H 	 9.95667 	 -2.90313 	 87.205 	 
H 	 10.4772 	 -1.64869 	 85.984 	 
S 	 7.56342 	 -9.50365 	 87.8264 	 
C 	 5.88513 	 -9.80302 	 87.9959 	 
C 	 5.09182 	 -8.6534 	 87.7273 	 
C 	 5.92325 	 -7.55161 	 87.2998 	 
C 	 7.30551 	 -7.8342 	 87.4182 	 
H 	 3.98538 	 -8.80161 	 87.7629 	 
C 	 5.38998 	 -6.17963 	 87.112 	 
H 	 4.7648 	 -6.08624 	 86.2062 	 
H 	 6.13647 	 -5.33035 	 87.038 	 
C 	 4.37269 	 -5.81363 	 88.1766 	 
H 	 4.78531 	 -6.04227 	 89.1349 	 
H 	 3.46861 	 -6.44645 	 88.0581 	 
C 	 3.94564 	 -4.39447 	 88.059 	 
H 	 3.28541 	 -3.99749 	 88.8897 	 
H 	 3.37295 	 -4.10488 	 87.111 	 
H 	 4.82343 	 -3.73156 	 88.0615 	 
H 	 11.7156 	 -5.39626 	 87.7363 	 
H 	 5.48582 	 -10.6577 	 88.5508 	 
