34

S 	 46.5908 	 14.8279 	 75.1153 	 
C 	 45.1089 	 14.1702 	 75.6511 	 
C 	 44.2155 	 15.1885 	 76.0545 	 
C 	 44.8819 	 16.505 	 76.0138 	 
C 	 46.1611 	 16.4985 	 75.5593 	 
H 	 44.535 	 17.4956 	 76.1918 	 
C 	 42.8069 	 14.9601 	 76.5671 	 
H 	 42.2203 	 14.7644 	 75.6558 	 
H 	 42.3089 	 15.9041 	 76.9789 	 
C 	 42.6836 	 13.7826 	 77.5585 	 
H 	 42.88 	 12.8414 	 77.0036 	 
H 	 43.3776 	 13.7174 	 78.3655 	 
C 	 41.3694 	 13.64 	 78.2938 	 
H 	 41.4395 	 13.062 	 79.1822 	 
H 	 40.8473 	 14.6162 	 78.4333 	 
H 	 40.5566 	 13.1396 	 77.8279 	 
S 	 48.7952 	 17.1652 	 75.7427 	 
C 	 49.3117 	 18.8593 	 75.7755 	 
C 	 48.2166 	 19.7142 	 75.7319 	 
C 	 46.9607 	 19.0559 	 75.608 	 
C 	 47.0916 	 17.6274 	 75.5986 	 
H 	 48.2566 	 20.76 	 75.7748 	 
C 	 45.6723 	 19.8173 	 75.4783 	 
H 	 45.0957 	 19.1976 	 74.7909 	 
H 	 45.8208 	 20.6206 	 74.7189 	 
C 	 45.0201 	 20.3253 	 76.7933 	 
H 	 44.9957 	 19.4437 	 77.4433 	 
H 	 44.0332 	 20.5202 	 76.5947 	 
C 	 45.8429 	 21.5438 	 77.3515 	 
H 	 46.0539 	 22.2705 	 76.5187 	 
H 	 46.7959 	 21.1778 	 77.6491 	 
H 	 45.3253 	 22.1049 	 78.1775 	 
H 	 44.7282 	 13.1046 	 75.4439 	 
H 	 50.3863 	 19.1316 	 75.9531 	 
