34

S 	 -95.9929 	 42.7647 	 126.767 	 
C 	 -94.6457 	 41.8736 	 126.101 	 
C 	 -95.0715 	 40.8351 	 125.191 	 
C 	 -96.5062 	 40.8492 	 125.107 	 
C 	 -97.1432 	 41.8625 	 125.761 	 
H 	 -97.0595 	 40.0228 	 124.711 	 
C 	 -94.2149 	 39.7798 	 124.444 	 
H 	 -94.8083 	 39.2636 	 123.743 	 
H 	 -93.8127 	 39.0496 	 125.106 	 
C 	 -93.0286 	 40.404 	 123.656 	 
H 	 -93.5445 	 41.2291 	 123.086 	 
H 	 -92.2587 	 40.7073 	 124.312 	 
C 	 -92.5582 	 39.3627 	 122.597 	 
H 	 -91.7402 	 39.8001 	 121.898 	 
H 	 -92.1029 	 38.5079 	 123.032 	 
H 	 -93.2704 	 39.1112 	 121.855 	 
S 	 -99.1394 	 42.4686 	 127.521 	 
C 	 -100.568 	 43.2136 	 126.863 	 
C 	 -100.761 	 42.7552 	 125.544 	 
C 	 -99.5711 	 42.2969 	 124.974 	 
C 	 -98.5252 	 42.1559 	 125.897 	 
H 	 -101.712 	 42.9863 	 125.048 	 
C 	 -99.445 	 42.0852 	 123.437 	 
H 	 -100.126 	 41.3209 	 123.056 	 
H 	 -98.3941 	 41.6829 	 123.228 	 
C 	 -99.4752 	 43.4035 	 122.629 	 
H 	 -98.8499 	 44.1114 	 123.174 	 
H 	 -100.6 	 43.7659 	 122.665 	 
C 	 -99.2046 	 43.3441 	 121.047 	 
H 	 -99.7727 	 42.6917 	 120.421 	 
H 	 -98.2521 	 42.9288 	 120.989 	 
H 	 -99.216 	 44.2774 	 120.606 	 
H 	 -93.5699 	 42.044 	 126.399 	 
H 	 -101.425 	 43.5621 	 127.306 	 
