34

S 	 -2.15663 	 6.21446 	 83.9321 	 
C 	 -0.974497 	 5.41032 	 82.9675 	 
C 	 -1.3911 	 4.21393 	 82.426 	 
C 	 -2.77848 	 4.01507 	 82.612 	 
C 	 -3.36722 	 5.02478 	 83.4367 	 
H 	 -3.35823 	 3.18656 	 82.316 	 
C 	 -0.523337 	 3.17154 	 81.7503 	 
H 	 -0.465484 	 2.29886 	 82.3415 	 
H 	 0.479912 	 3.57363 	 81.5118 	 
C 	 -1.12056 	 2.82494 	 80.4763 	 
H 	 -2.00808 	 2.23565 	 80.609 	 
H 	 -1.31207 	 3.70292 	 79.8755 	 
C 	 -0.189414 	 1.89367 	 79.6576 	 
H 	 0.333397 	 1.08189 	 80.2246 	 
H 	 -0.661132 	 1.49651 	 78.7506 	 
H 	 0.646592 	 2.52449 	 79.2968 	 
S 	 -5.01935 	 5.60097 	 85.5889 	 
C 	 -6.75505 	 5.4807 	 85.4014 	 
C 	 -7.05869 	 5.12688 	 84.1085 	 
C 	 -5.94939 	 4.76255 	 83.2968 	 
C 	 -4.77368 	 5.15858 	 83.8773 	 
H 	 -8.09851 	 5.03849 	 83.883 	 
C 	 -6.05145 	 4.2206 	 81.932 	 
H 	 -5.22022 	 4.54923 	 81.2625 	 
H 	 -6.87414 	 4.80688 	 81.538 	 
C 	 -6.20964 	 2.6563 	 81.9181 	 
H 	 -7.06904 	 2.4459 	 82.5449 	 
H 	 -5.3423 	 2.26441 	 82.4758 	 
C 	 -6.26831 	 2.00297 	 80.5241 	 
H 	 -6.43365 	 0.953573 	 80.6588 	 
H 	 -5.40442 	 2.22524 	 79.9213 	 
H 	 -7.00582 	 2.31649 	 79.9234 	 
H 	 0.10681 	 5.67415 	 83.0252 	 
H 	 -7.44284 	 5.69186 	 86.193 	 
