34

S 	 18.4941 	 -9.03557 	 81.7066 	 
C 	 18.807 	 -10.5623 	 82.5107 	 
C 	 19.0146 	 -11.5293 	 81.5421 	 
C 	 19.1317 	 -11.0096 	 80.2384 	 
C 	 18.8034 	 -9.68928 	 80.1075 	 
H 	 19.4836 	 -11.4773 	 79.3599 	 
C 	 19.643 	 -12.9203 	 81.901 	 
H 	 20.5537 	 -12.6348 	 82.4601 	 
H 	 19.9506 	 -13.3408 	 80.9701 	 
C 	 18.7373 	 -13.8928 	 82.7344 	 
H 	 18.4711 	 -13.3791 	 83.6307 	 
H 	 17.8124 	 -14.0037 	 82.1575 	 
C 	 19.475 	 -15.1993 	 83.1236 	 
H 	 20.2394 	 -15.0114 	 83.8909 	 
H 	 18.9404 	 -16.0752 	 83.4075 	 
H 	 19.8992 	 -15.6305 	 82.2339 	 
S 	 19.8305 	 -7.35105 	 79.0692 	 
C 	 19.8625 	 -7.15063 	 77.3277 	 
C 	 19.222 	 -8.17238 	 76.66 	 
C 	 18.7837 	 -9.2255 	 77.561 	 
C 	 18.9758 	 -8.89926 	 78.875 	 
H 	 19.1528 	 -8.13129 	 75.6009 	 
C 	 18.0387 	 -10.4165 	 77.0745 	 
H 	 17.2783 	 -10.0608 	 76.4152 	 
H 	 17.5164 	 -10.6718 	 78.0093 	 
C 	 18.7756 	 -11.5726 	 76.3897 	 
H 	 19.551 	 -11.9529 	 77.1311 	 
H 	 19.3147 	 -11.2756 	 75.414 	 
C 	 17.9316 	 -12.7938 	 76.0597 	 
H 	 17.1836 	 -12.6715 	 75.2361 	 
H 	 17.3383 	 -13.0905 	 76.9016 	 
H 	 18.5996 	 -13.6163 	 75.7663 	 
H 	 19.1377 	 -10.664 	 83.5398 	 
H 	 20.3043 	 -6.22117 	 76.8624 	 
