34

S 	 51.0075 	 5.84277 	 84.7714 	 
C 	 51.7162 	 6.69404 	 83.4655 	 
C 	 51.1774 	 6.27036 	 82.2012 	 
C 	 50.203 	 5.2361 	 82.4012 	 
C 	 49.9731 	 4.93333 	 83.7009 	 
H 	 49.7058 	 4.66172 	 81.6535 	 
C 	 51.599 	 6.68733 	 80.8122 	 
H 	 51.6424 	 7.78525 	 80.6295 	 
H 	 50.8276 	 6.32126 	 80.077 	 
C 	 52.989 	 6.21396 	 80.4188 	 
H 	 53.7136 	 6.42349 	 81.1573 	 
H 	 52.993 	 5.10503 	 80.296 	 
C 	 53.3426 	 6.87873 	 79.1603 	 
H 	 52.4685 	 6.76177 	 78.4952 	 
H 	 53.6455 	 7.965 	 79.2957 	 
H 	 54.2513 	 6.35605 	 78.6679 	 
S 	 47.804 	 4.6312 	 85.3069 	 
C 	 46.8278 	 3.16818 	 85.1572 	 
C 	 47.4011 	 2.27788 	 84.3191 	 
C 	 48.6232 	 2.70487 	 83.6974 	 
C 	 49.0032 	 3.91873 	 84.1422 	 
H 	 46.8481 	 1.37153 	 84.1337 	 
C 	 49.3161 	 1.85201 	 82.6294 	 
H 	 49.7986 	 2.38258 	 81.7422 	 
H 	 48.4347 	 1.43768 	 82.1482 	 
C 	 50.3266 	 0.748961 	 83.1701 	 
H 	 49.8216 	 0.0694997 	 83.8168 	 
H 	 51.1397 	 1.20943 	 83.8112 	 
C 	 51.0178 	 -0.0588362 	 82.1585 	 
H 	 52.0218 	 -0.394158 	 82.5394 	 
H 	 51.069 	 0.398744 	 81.1869 	 
H 	 50.4181 	 -0.964008 	 82.0582 	 
H 	 52.4435 	 7.52648 	 83.5945 	 
H 	 45.8269 	 3.06715 	 85.5258 	 
