34

S 	 -66.0854 	 51.1797 	 126.087 	 
C 	 -67.4545 	 52.2491 	 126.333 	 
C 	 -67.0718 	 53.5063 	 125.956 	 
C 	 -65.7301 	 53.6716 	 125.381 	 
C 	 -64.9942 	 52.4423 	 125.442 	 
H 	 -65.4203 	 54.6135 	 125.108 	 
C 	 -68.0546 	 54.6241 	 125.816 	 
H 	 -69.0983 	 54.2606 	 125.881 	 
H 	 -68.0245 	 54.681 	 124.763 	 
C 	 -67.6803 	 55.9536 	 126.531 	 
H 	 -66.7406 	 56.2868 	 126.026 	 
H 	 -68.478 	 56.6554 	 126.264 	 
C 	 -67.6527 	 55.7132 	 128.053 	 
H 	 -67.4087 	 56.6031 	 128.678 	 
H 	 -68.5704 	 55.3496 	 128.331 	 
H 	 -66.8272 	 55.0727 	 128.223 	 
S 	 -62.7053 	 51.0885 	 126.351 	 
C 	 -61.2778 	 51.1289 	 125.411 	 
C 	 -61.3993 	 52.1077 	 124.441 	 
C 	 -62.6476 	 52.7107 	 124.353 	 
C 	 -63.5664 	 52.1696 	 125.243 	 
H 	 -60.5713 	 52.2216 	 123.736 	 
C 	 -62.9002 	 53.7148 	 123.262 	 
H 	 -62.1278 	 54.4962 	 123.258 	 
H 	 -63.8228 	 54.2239 	 123.422 	 
C 	 -62.8503 	 53.2129 	 121.791 	 
H 	 -63.7513 	 52.7424 	 121.55 	 
H 	 -62.0429 	 52.5772 	 121.568 	 
C 	 -62.7158 	 54.4 	 120.831 	 
H 	 -62.8768 	 54.0916 	 119.779 	 
H 	 -61.709 	 54.8478 	 120.831 	 
H 	 -63.3309 	 55.1955 	 121.088 	 
H 	 -68.4082 	 51.933 	 126.689 	 
H 	 -60.221 	 50.7787 	 125.582 	 
