34

S 	 3.11252 	 -3.28738 	 79.3341 	 
C 	 3.58001 	 -2.25231 	 80.7194 	 
C 	 3.30513 	 -2.76554 	 81.9503 	 
C 	 2.69096 	 -3.98978 	 81.6977 	 
C 	 2.36344 	 -4.31943 	 80.4043 	 
H 	 2.40564 	 -4.74862 	 82.4094 	 
C 	 3.85779 	 -2.33639 	 83.3001 	 
H 	 4.91834 	 -2.61524 	 83.3746 	 
H 	 3.34325 	 -2.98309 	 84.0683 	 
C 	 3.68699 	 -0.833042 	 83.6108 	 
H 	 4.05174 	 -0.735576 	 84.6412 	 
H 	 4.3438 	 -0.163009 	 82.9471 	 
C 	 2.19529 	 -0.240931 	 83.5321 	 
H 	 1.60523 	 -0.753876 	 84.2596 	 
H 	 2.15539 	 0.780987 	 83.749 	 
H 	 1.80444 	 -0.401903 	 82.5488 	 
S 	 0.503643 	 -5.40666 	 78.8721 	 
C 	 0.429259 	 -7.17421 	 78.6137 	 
C 	 1.40736 	 -7.80433 	 79.3543 	 
C 	 2.17667 	 -6.91764 	 80.1997 	 
C 	 1.79194 	 -5.57712 	 79.9773 	 
H 	 1.5815 	 -8.90195 	 79.3328 	 
C 	 3.43316 	 -7.39983 	 80.9866 	 
H 	 2.95203 	 -8.15209 	 81.5914 	 
H 	 3.80143 	 -6.51084 	 81.6501 	 
C 	 4.545 	 -7.99933 	 80.0436 	 
H 	 4.80472 	 -7.25574 	 79.2572 	 
H 	 4.2102 	 -8.89389 	 79.4749 	 
C 	 5.78304 	 -8.41648 	 80.798 	 
H 	 6.33942 	 -7.60463 	 81.2891 	 
H 	 6.40364 	 -8.8151 	 80.0005 	 
H 	 5.59543 	 -9.28535 	 81.4298 	 
H 	 4.21542 	 -1.45633 	 80.6644 	 
H 	 -0.102625 	 -7.73731 	 77.877 	 
