34

S 	 0.369313 	 79.1903 	 49.4525 	 
C 	 1.85137 	 78.8468 	 48.531 	 
C 	 2.68249 	 77.9681 	 49.2049 	 
C 	 1.99873 	 77.2796 	 50.2816 	 
C 	 0.626134 	 77.6562 	 50.3724 	 
H 	 2.49962 	 76.5237 	 50.878 	 
C 	 4.15788 	 77.7761 	 48.7837 	 
H 	 4.28319 	 78.5893 	 48.0933 	 
H 	 4.2381 	 76.8034 	 48.2465 	 
C 	 5.25694 	 77.9583 	 49.8715 	 
H 	 5.09842 	 78.9072 	 50.3867 	 
H 	 5.12058 	 77.0389 	 50.5229 	 
C 	 6.72021 	 78.0019 	 49.3441 	 
H 	 7.05114 	 78.9579 	 48.8427 	 
H 	 7.33725 	 77.9437 	 50.1864 	 
H 	 6.98397 	 77.1116 	 48.6531 	 
S 	 -1.17901 	 78.1077 	 52.335 	 
C 	 -1.76338 	 76.7239 	 53.2384 	 
C 	 -1.47119 	 75.5377 	 52.6211 	 
C 	 -0.616575 	 75.7479 	 51.5331 	 
C 	 -0.377809 	 77.0465 	 51.2239 	 
H 	 -1.68584 	 74.6095 	 53.1375 	 
C 	 -0.0274102 	 74.6242 	 50.6562 	 
H 	 1.01887 	 74.5466 	 50.7198 	 
H 	 -0.183748 	 74.9774 	 49.6482 	 
C 	 -0.632911 	 73.2278 	 50.6729 	 
H 	 -0.432087 	 72.5066 	 49.8756 	 
H 	 -1.66701 	 73.2632 	 50.8023 	 
C 	 -0.184682 	 72.36 	 51.9219 	 
H 	 -0.283821 	 72.8423 	 52.9129 	 
H 	 0.8646 	 72.1017 	 51.9244 	 
H 	 -0.902911 	 71.5517 	 51.9555 	 
H 	 2.20383 	 79.5863 	 47.7525 	 
H 	 -2.17628 	 76.8935 	 54.1989 	 
