34

S 	 -81.8716 	 32.9074 	 135.169 	 
C 	 -80.8239 	 31.6077 	 134.677 	 
C 	 -80.3406 	 31.7532 	 133.375 	 
C 	 -80.9793 	 32.8902 	 132.762 	 
C 	 -81.8029 	 33.6202 	 133.553 	 
H 	 -80.7835 	 33.2295 	 131.736 	 
C 	 -79.4684 	 30.7062 	 132.616 	 
H 	 -79.3138 	 31.1294 	 131.61 	 
H 	 -80.0362 	 29.7736 	 132.617 	 
C 	 -78.0301 	 30.4794 	 133.145 	 
H 	 -78.1862 	 30.0006 	 134.122 	 
H 	 -77.6081 	 29.6155 	 132.548 	 
C 	 -77.074 	 31.6678 	 133.282 	 
H 	 -76.9199 	 32.1702 	 132.285 	 
H 	 -77.4588 	 32.5005 	 133.918 	 
H 	 -76.0683 	 31.3983 	 133.704 	 
S 	 -83.7802 	 34.9449 	 132.358 	 
C 	 -84.2058 	 36.4684 	 132.909 	 
C 	 -83.3174 	 36.9489 	 133.897 	 
C 	 -82.2878 	 36.0712 	 134.207 	 
C 	 -82.3535 	 34.9316 	 133.352 	 
H 	 -83.5184 	 37.8946 	 134.334 	 
C 	 -81.2407 	 36.4541 	 135.253 	 
H 	 -80.8515 	 35.4782 	 135.536 	 
H 	 -81.5848 	 36.8315 	 136.209 	 
C 	 -80.0817 	 37.2933 	 134.735 	 
H 	 -80.5167 	 38.1801 	 134.341 	 
H 	 -79.6618 	 36.7718 	 133.886 	 
C 	 -79.0218 	 37.537 	 135.808 	 
H 	 -79.4926 	 37.2504 	 136.803 	 
H 	 -78.8072 	 38.522 	 135.718 	 
H 	 -78.1111 	 36.9779 	 135.685 	 
H 	 -80.6802 	 30.7678 	 135.335 	 
H 	 -85.041 	 37.0617 	 132.555 	 
