34

S 	 7.77597 	 -14.9804 	 82.045 	 
C 	 8.59634 	 -16.1164 	 83.1257 	 
C 	 8.38196 	 -15.8713 	 84.4811 	 
C 	 7.59156 	 -14.6563 	 84.6389 	 
C 	 7.25962 	 -14.0842 	 83.4527 	 
H 	 7.24091 	 -14.0814 	 85.5046 	 
C 	 8.93958 	 -16.6395 	 85.6172 	 
H 	 9.82739 	 -16.147 	 85.9059 	 
H 	 9.25642 	 -17.6974 	 85.3443 	 
C 	 7.92894 	 -16.6753 	 86.8065 	 
H 	 7.66243 	 -15.6569 	 87.1183 	 
H 	 6.98399 	 -17.0392 	 86.3992 	 
C 	 8.33851 	 -17.4927 	 88.0668 	 
H 	 7.40528 	 -17.5624 	 88.59 	 
H 	 8.62385 	 -18.5067 	 87.7818 	 
H 	 9.11808 	 -16.9494 	 88.6673 	 
S 	 4.89 	 -12.6825 	 83.3655 	 
C 	 4.93721 	 -10.9643 	 83.2977 	 
C 	 6.25815 	 -10.4992 	 83.2496 	 
C 	 7.22719 	 -11.5274 	 83.402 	 
C 	 6.69268 	 -12.7453 	 83.3029 	 
H 	 6.35909 	 -9.45755 	 83.1299 	 
C 	 8.68388 	 -11.1981 	 83.4608 	 
H 	 8.80865 	 -10.1405 	 83.2306 	 
H 	 9.1584 	 -11.6834 	 82.6431 	 
C 	 9.27778 	 -11.4065 	 84.825 	 
H 	 9.3114 	 -12.4702 	 84.9834 	 
H 	 8.659 	 -10.8605 	 85.5607 	 
C 	 10.734 	 -10.936 	 85.0069 	 
H 	 11.3865 	 -11.4276 	 84.237 	 
H 	 11.1639 	 -11.0195 	 85.9861 	 
H 	 10.8573 	 -9.86444 	 84.7299 	 
H 	 9.21617 	 -16.884 	 82.8117 	 
H 	 4.10311 	 -10.2948 	 83.4497 	 
