34

S 	 -71.8211 	 40.4195 	 137.324 	 
C 	 -71.9155 	 39.3671 	 135.873 	 
C 	 -70.6623 	 38.9775 	 135.456 	 
C 	 -69.6499 	 39.341 	 136.358 	 
C 	 -70.0623 	 40.1945 	 137.387 	 
H 	 -68.6109 	 39.0348 	 136.314 	 
C 	 -70.5402 	 38.0433 	 134.316 	 
H 	 -71.4372 	 37.4207 	 134.372 	 
H 	 -69.6317 	 37.4617 	 134.419 	 
C 	 -70.4432 	 38.7039 	 132.903 	 
H 	 -71.3084 	 39.1232 	 132.57 	 
H 	 -69.7301 	 39.5125 	 133.028 	 
C 	 -69.8994 	 37.7337 	 131.842 	 
H 	 -68.8198 	 37.7194 	 131.823 	 
H 	 -70.3293 	 36.7412 	 131.691 	 
H 	 -69.9563 	 38.1761 	 130.797 	 
S 	 -68.4388 	 39.6978 	 139.483 	 
C 	 -67.6929 	 41.0649 	 140.359 	 
C 	 -68.3296 	 42.22 	 139.982 	 
C 	 -69.2186 	 42.0896 	 138.921 	 
C 	 -69.3087 	 40.8002 	 138.487 	 
H 	 -68.0815 	 43.1108 	 140.544 	 
C 	 -69.7635 	 43.324 	 138.233 	 
H 	 -70.7734 	 43.1412 	 137.767 	 
H 	 -69.0693 	 43.4974 	 137.462 	 
C 	 -69.85 	 44.5081 	 139.113 	 
H 	 -68.8286 	 44.8676 	 139.322 	 
H 	 -70.4498 	 44.2539 	 140.019 	 
C 	 -70.5947 	 45.5979 	 138.33 	 
H 	 -71.6326 	 45.4152 	 138.134 	 
H 	 -70.0304 	 46.1006 	 137.492 	 
H 	 -70.5613 	 46.4166 	 139.067 	 
H 	 -72.8491 	 39.1743 	 135.347 	 
H 	 -67.117 	 41.0294 	 141.322 	 
