34

S 	 -45.4189 	 30.7122 	 88.4565 	 
C 	 -46.0413 	 30.1556 	 90.0193 	 
C 	 -47.0942 	 30.8905 	 90.4603 	 
C 	 -47.3643 	 31.9968 	 89.5778 	 
C 	 -46.5446 	 32.0591 	 88.5071 	 
H 	 -48.0511 	 32.804 	 89.7405 	 
C 	 -47.9642 	 30.6651 	 91.6889 	 
H 	 -47.3244 	 31.2143 	 92.4328 	 
H 	 -47.894 	 29.6555 	 92.0597 	 
C 	 -49.4768 	 31.0348 	 91.6946 	 
H 	 -49.6935 	 32.1103 	 91.6203 	 
H 	 -49.8762 	 30.5856 	 90.7171 	 
C 	 -50.2852 	 30.376 	 92.865 	 
H 	 -51.3058 	 30.7824 	 92.7923 	 
H 	 -50.2661 	 29.2414 	 92.7553 	 
H 	 -49.9026 	 30.817 	 93.7782 	 
S 	 -46.1717 	 32.3851 	 85.8852 	 
C 	 -46.104 	 33.9586 	 85.218 	 
C 	 -46.3873 	 34.9266 	 86.1126 	 
C 	 -46.7009 	 34.3863 	 87.3707 	 
C 	 -46.5036 	 33.0384 	 87.4329 	 
H 	 -46.4148 	 35.958 	 85.869 	 
C 	 -47.1646 	 35.3491 	 88.4884 	 
H 	 -46.4647 	 36.1331 	 88.5168 	 
H 	 -47.0755 	 34.825 	 89.4143 	 
C 	 -48.5353 	 36.0026 	 88.2271 	 
H 	 -49.1688 	 35.1646 	 88.0002 	 
H 	 -48.4573 	 36.5491 	 87.3426 	 
C 	 -49.1019 	 36.9547 	 89.3348 	 
H 	 -48.4564 	 37.7975 	 89.5384 	 
H 	 -49.2878 	 36.4591 	 90.3112 	 
H 	 -50.0634 	 37.3374 	 89.1123 	 
H 	 -45.8327 	 29.1921 	 90.4757 	 
H 	 -46.0167 	 34.2301 	 84.1652 	 
