34

S 	 -60.9283 	 49.8308 	 134.139 	 
C 	 -60.366 	 48.3351 	 135.01 	 
C 	 -60.4334 	 48.6482 	 136.349 	 
C 	 -60.9898 	 49.9333 	 136.644 	 
C 	 -61.3439 	 50.7156 	 135.598 	 
H 	 -61.1114 	 50.1847 	 137.664 	 
C 	 -60.1377 	 47.7321 	 137.444 	 
H 	 -60.1102 	 46.7415 	 136.988 	 
H 	 -60.9075 	 47.6001 	 138.238 	 
C 	 -58.772 	 47.8851 	 138.123 	 
H 	 -58.6085 	 48.8898 	 138.616 	 
H 	 -58.6671 	 47.2932 	 139.013 	 
C 	 -57.5491 	 47.5906 	 137.217 	 
H 	 -57.4357 	 48.2263 	 136.315 	 
H 	 -56.6206 	 47.5109 	 137.783 	 
H 	 -57.5799 	 46.559 	 136.852 	 
S 	 -63.4225 	 52.2025 	 134.456 	 
C 	 -63.4149 	 53.9412 	 134.675 	 
C 	 -62.6571 	 54.2071 	 135.807 	 
C 	 -61.9482 	 53.057 	 136.415 	 
C 	 -62.0546 	 51.9599 	 135.575 	 
H 	 -62.7148 	 55.1997 	 136.275 	 
C 	 -60.9202 	 53.1615 	 137.556 	 
H 	 -60.6948 	 52.1755 	 137.869 	 
H 	 -61.5238 	 53.6126 	 138.358 	 
C 	 -59.5287 	 53.7444 	 137.306 	 
H 	 -59.1122 	 53.9416 	 138.293 	 
H 	 -59.6504 	 54.7059 	 136.74 	 
C 	 -58.7378 	 52.759 	 136.351 	 
H 	 -58.7489 	 51.7067 	 136.726 	 
H 	 -57.6219 	 52.9474 	 136.386 	 
H 	 -59.2012 	 52.7749 	 135.332 	 
H 	 -59.8947 	 47.4887 	 134.576 	 
H 	 -64.1528 	 54.5868 	 134.242 	 
