34

S 	 -88.0899 	 48.4464 	 128.188 	 
C 	 -89.0431 	 48.6392 	 126.75 	 
C 	 -88.3458 	 48.164 	 125.658 	 
C 	 -87.0345 	 47.8167 	 125.979 	 
C 	 -86.6409 	 47.9604 	 127.274 	 
H 	 -86.4717 	 47.3531 	 125.139 	 
C 	 -89.0126 	 47.9795 	 124.303 	 
H 	 -88.3417 	 48.2054 	 123.458 	 
H 	 -89.8654 	 48.6456 	 124.247 	 
C 	 -89.4891 	 46.5863 	 123.959 	 
H 	 -89.7221 	 46.321 	 122.944 	 
H 	 -88.6966 	 45.9651 	 124.276 	 
C 	 -90.6297 	 46.2133 	 124.897 	 
H 	 -90.643 	 45.0603 	 124.849 	 
H 	 -90.6056 	 46.4885 	 125.884 	 
H 	 -91.5759 	 46.6387 	 124.466 	 
S 	 -85.783 	 46.2881 	 129.28 	 
C 	 -84.0657 	 45.8937 	 129.436 	 
C 	 -83.3742 	 46.7129 	 128.482 	 
C 	 -84.1181 	 47.5173 	 127.591 	 
C 	 -85.4417 	 47.4065 	 127.893 	 
H 	 -82.3407 	 46.6483 	 128.455 	 
C 	 -83.4992 	 48.3249 	 126.467 	 
H 	 -84.1656 	 48.506 	 125.629 	 
H 	 -82.6144 	 47.779 	 126.106 	 
C 	 -82.8705 	 49.6779 	 126.935 	 
H 	 -82.3652 	 50.1511 	 126.086 	 
H 	 -82.0612 	 49.4477 	 127.656 	 
C 	 -83.9485 	 50.6912 	 127.461 	 
H 	 -83.4927 	 51.7145 	 127.395 	 
H 	 -84.1837 	 50.4308 	 128.513 	 
H 	 -84.8104 	 50.6257 	 126.868 	 
H 	 -90.0253 	 49.017 	 126.812 	 
H 	 -83.6738 	 45.3156 	 130.258 	 
