34

S 	 53.3 	 20.0687 	 48.8798 	 
C 	 53.2074 	 20.9795 	 47.3687 	 
C 	 54.1137 	 20.454 	 46.4038 	 
C 	 54.8869 	 19.3945 	 46.9755 	 
C 	 54.5159 	 19.0548 	 48.3423 	 
H 	 55.7234 	 18.968 	 46.5256 	 
C 	 54.3028 	 21.0666 	 45.0373 	 
H 	 54.9403 	 21.8988 	 45.0329 	 
H 	 53.3516 	 21.6314 	 44.9388 	 
C 	 54.6122 	 20.2049 	 43.8197 	 
H 	 55.0014 	 20.8191 	 42.9877 	 
H 	 55.5145 	 19.6532 	 44.1098 	 
C 	 53.4794 	 19.359 	 43.2917 	 
H 	 53.3025 	 18.5091 	 43.9595 	 
H 	 52.6512 	 19.949 	 42.9749 	 
H 	 53.8282 	 18.939 	 42.3516 	 
S 	 55.7991 	 19.2124 	 50.69 	 
C 	 56.3948 	 17.7591 	 51.4317 	 
C 	 56.2556 	 16.6215 	 50.6169 	 
C 	 55.4933 	 16.8676 	 49.436 	 
C 	 55.2585 	 18.2821 	 49.3079 	 
H 	 56.6997 	 15.6562 	 50.9736 	 
C 	 55.1392 	 15.8743 	 48.4028 	 
H 	 55.2506 	 16.2353 	 47.3746 	 
H 	 54.0402 	 15.7273 	 48.5612 	 
C 	 55.9027 	 14.5159 	 48.4377 	 
H 	 55.5257 	 13.9767 	 49.3578 	 
H 	 57.0218 	 14.5148 	 48.3724 	 
C 	 55.7335 	 13.7375 	 47.125 	 
H 	 55.8675 	 12.6517 	 47.1702 	 
H 	 56.4205 	 14.1502 	 46.3916 	 
H 	 54.7303 	 13.8808 	 46.8328 	 
H 	 52.4507 	 21.8334 	 47.2312 	 
H 	 56.9363 	 17.7504 	 52.3445 	 
