34

S 	 -54.3528 	 29.9234 	 97.5989 	 
C 	 -53.4504 	 28.5492 	 96.8582 	 
C 	 -52.69 	 28.9653 	 95.7766 	 
C 	 -52.8095 	 30.3953 	 95.5494 	 
C 	 -53.5755 	 31.0827 	 96.4843 	 
H 	 -52.3277 	 31.0333 	 94.8338 	 
C 	 -51.8931 	 27.9873 	 94.918 	 
H 	 -52.4488 	 27.8026 	 93.9566 	 
H 	 -51.8543 	 26.9955 	 95.369 	 
C 	 -50.3338 	 28.1939 	 94.6664 	 
H 	 -50.2387 	 29.2715 	 94.6539 	 
H 	 -49.8056 	 27.8427 	 95.5343 	 
C 	 -49.6729 	 27.6383 	 93.4341 	 
H 	 -48.623 	 28.0009 	 93.2047 	 
H 	 -49.7686 	 26.5466 	 93.4272 	 
H 	 -50.1924 	 28.0657 	 92.5547 	 
S 	 -55.4449 	 33.0626 	 96.2812 	 
C 	 -54.9117 	 34.7021 	 96.0546 	 
C 	 -53.5263 	 34.8018 	 96.0809 	 
C 	 -52.869 	 33.5631 	 96.2835 	 
C 	 -53.792 	 32.5228 	 96.5007 	 
H 	 -53.0812 	 35.7134 	 95.9594 	 
C 	 -51.3522 	 33.4568 	 96.2985 	 
H 	 -51.0094 	 33.981 	 95.411 	 
H 	 -51.1419 	 32.4037 	 96.0981 	 
C 	 -50.7345 	 33.9249 	 97.6081 	 
H 	 -51.4101 	 33.4866 	 98.3564 	 
H 	 -50.7673 	 35.0423 	 97.8195 	 
C 	 -49.2681 	 33.4937 	 97.8322 	 
H 	 -48.8949 	 33.7855 	 98.8192 	 
H 	 -48.6009 	 33.8302 	 97.0733 	 
H 	 -49.2473 	 32.3539 	 97.8348 	 
H 	 -53.5676 	 27.6205 	 97.2601 	 
H 	 -55.4672 	 35.6177 	 96.1284 	 
