34

S 	 -59.0798 	 52.1138 	 135.193 	 
C 	 -59.2072 	 51.1156 	 136.596 	 
C 	 -60.4963 	 51.2436 	 137.18 	 
C 	 -61.3377 	 52.1653 	 136.468 	 
C 	 -60.7049 	 52.7963 	 135.416 	 
H 	 -62.3386 	 52.5149 	 136.698 	 
C 	 -60.8956 	 50.7282 	 138.525 	 
H 	 -60.1446 	 49.8929 	 138.841 	 
H 	 -61.8929 	 50.168 	 138.499 	 
C 	 -61.059 	 51.8215 	 139.622 	 
H 	 -61.9122 	 52.4596 	 139.351 	 
H 	 -61.4312 	 51.2995 	 140.503 	 
C 	 -59.8029 	 52.6288 	 139.879 	 
H 	 -59.2 	 52.7841 	 139.045 	 
H 	 -60.0637 	 53.5956 	 140.302 	 
H 	 -59.2011 	 52.1459 	 140.669 	 
S 	 -61.0023 	 53.3965 	 132.742 	 
C 	 -61.7304 	 54.9586 	 132.334 	 
C 	 -62.2104 	 55.621 	 133.444 	 
C 	 -61.9485 	 54.8932 	 134.67 	 
C 	 -61.2724 	 53.6939 	 134.45 	 
H 	 -62.7156 	 56.5572 	 133.297 	 
C 	 -62.2344 	 55.5652 	 136.059 	 
H 	 -62.6939 	 54.7838 	 136.726 	 
H 	 -63.0361 	 56.2888 	 135.981 	 
C 	 -61.0507 	 56.2732 	 136.756 	 
H 	 -60.7365 	 57.0688 	 136.047 	 
H 	 -60.1341 	 55.6163 	 136.954 	 
C 	 -61.4262 	 57.0515 	 138.08 	 
H 	 -62.091 	 56.5016 	 138.778 	 
H 	 -61.9436 	 57.9745 	 137.763 	 
H 	 -60.5824 	 57.4799 	 138.601 	 
H 	 -58.3743 	 50.511 	 136.986 	 
H 	 -61.8816 	 55.3216 	 131.344 	 
