34

S 	 -8.84678 	 61.2943 	 55.1792 	 
C 	 -8.53508 	 60.106 	 56.4063 	 
C 	 -7.4678 	 59.3182 	 56.0712 	 
C 	 -6.89663 	 59.6827 	 54.8558 	 
C 	 -7.52489 	 60.7338 	 54.1395 	 
H 	 -6.05723 	 59.2215 	 54.3813 	 
C 	 -6.95366 	 58.2126 	 57.0072 	 
H 	 -6.44202 	 58.6838 	 57.8441 	 
H 	 -6.00615 	 57.6816 	 56.6395 	 
C 	 -7.98447 	 57.1451 	 57.5984 	 
H 	 -8.71347 	 57.5532 	 58.2866 	 
H 	 -8.57044 	 56.6949 	 56.7848 	 
C 	 -7.31904 	 55.9746 	 58.4267 	 
H 	 -7.9469 	 55.2061 	 58.8172 	 
H 	 -6.6147 	 55.5025 	 57.7187 	 
H 	 -6.73454 	 56.3853 	 59.3067 	 
S 	 -7.3885 	 60.1722 	 51.5094 	 
C 	 -6.94189 	 61.3817 	 50.3009 	 
C 	 -6.79778 	 62.6262 	 50.9202 	 
C 	 -7.11502 	 62.6087 	 52.2879 	 
C 	 -7.28433 	 61.3006 	 52.7917 	 
H 	 -6.4454 	 63.4789 	 50.2921 	 
C 	 -6.97287 	 63.8959 	 53.0675 	 
H 	 -5.96134 	 64.2023 	 53.2182 	 
H 	 -7.27205 	 63.687 	 54.1097 	 
C 	 -7.78697 	 65.1228 	 52.65 	 
H 	 -8.86356 	 64.7927 	 52.8649 	 
H 	 -7.59562 	 65.3038 	 51.5753 	 
C 	 -7.43087 	 66.4596 	 53.3605 	 
H 	 -7.72906 	 66.4222 	 54.4036 	 
H 	 -8.09711 	 67.2314 	 52.9139 	 
H 	 -6.40714 	 66.8926 	 53.2259 	 
H 	 -9.09031 	 59.878 	 57.2963 	 
H 	 -6.57601 	 61.1616 	 49.3131 	 
