34

S 	 15.2724 	 13.8793 	 86.2754 	 
C 	 16.3273 	 13.8998 	 84.949 	 
C 	 15.6972 	 13.6324 	 83.7017 	 
C 	 14.3239 	 13.3032 	 83.87 	 
C 	 13.9348 	 13.4509 	 85.1433 	 
H 	 13.7038 	 12.8855 	 83.1034 	 
C 	 16.4845 	 13.5209 	 82.3323 	 
H 	 15.7368 	 13.2001 	 81.5934 	 
H 	 17.222 	 12.7186 	 82.2961 	 
C 	 16.9431 	 14.8423 	 81.8026 	 
H 	 17.6273 	 15.4149 	 82.5301 	 
H 	 17.5177 	 14.5114 	 80.9562 	 
C 	 15.825 	 15.9257 	 81.5578 	 
H 	 15.3392 	 16.0678 	 82.5241 	 
H 	 16.091 	 16.946 	 81.3561 	 
H 	 15.1013 	 15.573 	 80.7403 	 
S 	 11.5423 	 14.3209 	 86.4175 	 
C 	 10.1932 	 13.2675 	 86.4975 	 
C 	 10.5527 	 12.0341 	 86.0409 	 
C 	 11.8693 	 11.9275 	 85.492 	 
C 	 12.5913 	 13.119 	 85.604 	 
H 	 9.76334 	 11.2185 	 86.1357 	 
C 	 12.4215 	 10.6324 	 85.0565 	 
H 	 12.3483 	 10.0333 	 85.9749 	 
H 	 13.4354 	 10.8173 	 84.7903 	 
C 	 11.7409 	 9.79749 	 83.9496 	 
H 	 10.8262 	 9.2595 	 84.2682 	 
H 	 12.3731 	 8.98808 	 83.6798 	 
C 	 11.1704 	 10.4834 	 82.6378 	 
H 	 10.5384 	 9.82949 	 81.9418 	 
H 	 11.9845 	 10.7967 	 82.0051 	 
H 	 10.6341 	 11.4419 	 82.7974 	 
H 	 17.3814 	 14.0724 	 85.0168 	 
H 	 9.24366 	 13.5147 	 86.9395 	 
