34

S 	 -68.8924 	 38.5848 	 134.742 	 
C 	 -68.8803 	 38.6685 	 132.935 	 
C 	 -68.649 	 37.4103 	 132.344 	 
C 	 -68.6022 	 36.3721 	 133.347 	 
C 	 -68.7314 	 36.833 	 134.656 	 
H 	 -68.462 	 35.3206 	 133.113 	 
C 	 -68.2929 	 37.1872 	 130.842 	 
H 	 -69.0357 	 37.7574 	 130.268 	 
H 	 -68.485 	 36.1786 	 130.573 	 
C 	 -66.8169 	 37.4739 	 130.47 	 
H 	 -66.8533 	 37.3487 	 129.437 	 
H 	 -66.5753 	 38.5937 	 130.59 	 
C 	 -65.71 	 36.6209 	 131.041 	 
H 	 -65.858 	 36.6517 	 132.153 	 
H 	 -65.8173 	 35.5361 	 130.767 	 
H 	 -64.6346 	 36.9439 	 130.79 	 
S 	 -67.2837 	 36.6119 	 136.901 	 
C 	 -67.6127 	 35.3108 	 138.047 	 
C 	 -68.5888 	 34.4962 	 137.56 	 
C 	 -69.1206 	 34.8516 	 136.294 	 
C 	 -68.5511 	 36.0314 	 135.838 	 
H 	 -68.7873 	 33.6142 	 138.157 	 
C 	 -70.2592 	 34.0707 	 135.702 	 
H 	 -70.69 	 34.6441 	 134.96 	 
H 	 -71.0054 	 33.7938 	 136.322 	 
C 	 -69.7383 	 32.8196 	 134.872 	 
H 	 -69.0921 	 33.2104 	 134.109 	 
H 	 -70.5701 	 32.2281 	 134.329 	 
C 	 -68.9912 	 31.8992 	 135.881 	 
H 	 -67.942 	 32.3166 	 136.13 	 
H 	 -68.9376 	 30.8828 	 135.531 	 
H 	 -69.5702 	 31.808 	 136.739 	 
H 	 -68.9043 	 39.6011 	 132.375 	 
H 	 -67.1898 	 35.1346 	 139.03 	 
