34

S 	 0.0920315 	 -23.5007 	 58.4044 	 
C 	 0.449856 	 -21.8457 	 58.2551 	 
C 	 0.173597 	 -21.1916 	 59.4234 	 
C 	 -0.194611 	 -22.0939 	 60.4383 	 
C 	 -0.0535764 	 -23.4373 	 60.0828 	 
H 	 -0.558226 	 -21.8868 	 61.4568 	 
C 	 0.314182 	 -19.7135 	 59.7072 	 
H 	 -0.568157 	 -19.1517 	 59.544 	 
H 	 0.886352 	 -19.2535 	 58.8723 	 
C 	 1.06759 	 -19.2323 	 60.986 	 
H 	 1.06431 	 -18.1575 	 60.9851 	 
H 	 0.602285 	 -19.589 	 61.9279 	 
C 	 2.53756 	 -19.7418 	 61.0302 	 
H 	 3.11289 	 -19.255 	 60.2355 	 
H 	 2.95461 	 -19.7693 	 62.057 	 
H 	 2.60929 	 -20.7159 	 60.6653 	 
S 	 -1.93852 	 -25.5768 	 60.1635 	 
C 	 -1.79072 	 -26.5928 	 61.4851 	 
C 	 -0.817028 	 -26.266 	 62.4137 	 
C 	 -0.0671724 	 -25.1431 	 62.0297 	 
C 	 -0.572301 	 -24.5775 	 60.8568 	 
H 	 -0.653815 	 -26.8213 	 63.3054 	 
C 	 1.05365 	 -24.7684 	 63.0221 	 
H 	 0.596158 	 -24.5678 	 63.9812 	 
H 	 1.49553 	 -23.7975 	 62.7607 	 
C 	 2.17494 	 -25.7699 	 63.2747 	 
H 	 1.94388 	 -26.7314 	 63.7812 	 
H 	 2.96955 	 -25.3116 	 63.8779 	 
C 	 2.9215 	 -26.0631 	 61.9556 	 
H 	 3.46264 	 -25.1998 	 61.5768 	 
H 	 2.17714 	 -26.4088 	 61.1738 	 
H 	 3.70027 	 -26.83 	 62.0521 	 
H 	 0.89779 	 -21.3974 	 57.4116 	 
H 	 -2.61436 	 -27.2043 	 61.8282 	 
