34

S 	 -44.246 	 37.3102 	 81.5147 	 
C 	 -42.8134 	 38.0983 	 80.8284 	 
C 	 -42.9745 	 38.1437 	 79.4427 	 
C 	 -44.2649 	 37.705 	 79.001 	 
C 	 -45.0873 	 37.1991 	 79.9868 	 
H 	 -44.724 	 37.706 	 78.0222 	 
C 	 -41.9282 	 38.6271 	 78.524 	 
H 	 -41.4021 	 39.4861 	 79.0102 	 
H 	 -42.4628 	 39.1031 	 77.6558 	 
C 	 -40.9219 	 37.5462 	 78.1235 	 
H 	 -40.1971 	 38.1107 	 77.4642 	 
H 	 -40.3608 	 37.1885 	 79.0375 	 
C 	 -41.4942 	 36.3301 	 77.3542 	 
H 	 -41.6444 	 36.5727 	 76.3309 	 
H 	 -40.7235 	 35.6091 	 77.401 	 
H 	 -42.3955 	 35.9231 	 77.9048 	 
S 	 -46.5497 	 35.2359 	 78.8909 	 
C 	 -48.2398 	 34.9361 	 79.3891 	 
C 	 -48.644 	 35.926 	 80.2847 	 
C 	 -47.5786 	 36.769 	 80.7493 	 
C 	 -46.3883 	 36.6237 	 79.9474 	 
H 	 -49.6223 	 35.8495 	 80.709 	 
C 	 -47.8718 	 37.7956 	 81.8111 	 
H 	 -46.9099 	 37.8241 	 82.3198 	 
H 	 -48.7758 	 37.5562 	 82.3662 	 
C 	 -48.0708 	 39.2666 	 81.4073 	 
H 	 -47.382 	 39.6244 	 80.6829 	 
H 	 -47.8872 	 39.8853 	 82.2783 	 
C 	 -49.5194 	 39.6297 	 80.9205 	 
H 	 -49.94 	 40.2828 	 81.6576 	 
H 	 -50.2513 	 38.8375 	 80.8549 	 
H 	 -49.4388 	 40.2018 	 80.0617 	 
H 	 -41.8542 	 38.2244 	 81.3625 	 
H 	 -48.8725 	 34.0588 	 79.1438 	 
