34

S 	 -38.0318 	 74.3093 	 152.547 	 
C 	 -37.2161 	 75.8406 	 152.255 	 
C 	 -35.9226 	 75.8558 	 152.826 	 
C 	 -35.6484 	 74.6166 	 153.511 	 
C 	 -36.6174 	 73.6796 	 153.393 	 
H 	 -34.7895 	 74.3619 	 154.053 	 
C 	 -34.8811 	 76.937 	 152.636 	 
H 	 -35.4284 	 77.7607 	 152.185 	 
H 	 -34.2173 	 76.4629 	 151.879 	 
C 	 -34.1632 	 77.3532 	 153.928 	 
H 	 -34.9527 	 77.5228 	 154.685 	 
H 	 -33.5825 	 76.4535 	 154.247 	 
C 	 -33.3316 	 78.6364 	 153.739 	 
H 	 -32.7818 	 79.0221 	 154.665 	 
H 	 -32.5922 	 78.6872 	 153.007 	 
H 	 -34.022 	 79.4516 	 153.387 	 
S 	 -37.2412 	 71.119 	 153.01 	 
C 	 -37.1498 	 69.963 	 154.317 	 
C 	 -36.541 	 70.5013 	 155.411 	 
C 	 -36.358 	 71.9096 	 155.306 	 
C 	 -36.6651 	 72.3706 	 154.026 	 
H 	 -36.4519 	 69.9578 	 156.335 	 
C 	 -35.907 	 72.6919 	 156.557 	 
H 	 -36.3582 	 72.1977 	 157.442 	 
H 	 -36.2775 	 73.7579 	 156.463 	 
C 	 -34.3846 	 72.7054 	 156.77 	 
H 	 -33.9924 	 73.0846 	 155.848 	 
H 	 -33.9413 	 71.6431 	 156.874 	 
C 	 -33.8755 	 73.434 	 158.017 	 
H 	 -34.2589 	 73.01 	 158.97 	 
H 	 -33.9215 	 74.4964 	 157.89 	 
H 	 -32.7787 	 73.2463 	 158.022 	 
H 	 -37.6832 	 76.6418 	 151.676 	 
H 	 -37.7264 	 69.0333 	 154.298 	 
