34

S 	 45.0576 	 5.97562 	 86.7749 	 
C 	 45.5991 	 5.60844 	 88.3028 	 
C 	 45.0494 	 6.37887 	 89.2741 	 
C 	 44.1156 	 7.37356 	 88.7512 	 
C 	 44.0092 	 7.21355 	 87.3567 	 
H 	 43.5762 	 8.05672 	 89.4123 	 
C 	 45.2037 	 6.18406 	 90.8162 	 
H 	 45.3845 	 7.15917 	 91.151 	 
H 	 46.1223 	 5.61318 	 90.9628 	 
C 	 44.1176 	 5.49311 	 91.6419 	 
H 	 44.4039 	 5.61708 	 92.7827 	 
H 	 43.2032 	 5.98883 	 91.5892 	 
C 	 43.8928 	 3.94697 	 91.2969 	 
H 	 43.1835 	 3.48714 	 91.9901 	 
H 	 43.584 	 3.67712 	 90.2916 	 
H 	 44.8168 	 3.37151 	 91.3702 	 
S 	 44.2262 	 8.72136 	 85.0253 	 
C 	 42.8349 	 9.69377 	 84.4463 	 
C 	 41.6977 	 9.41448 	 85.1466 	 
C 	 41.9874 	 8.53249 	 86.2636 	 
C 	 43.2785 	 8.05717 	 86.3577 	 
H 	 40.7798 	 9.97299 	 84.9631 	 
C 	 40.8608 	 8.21441 	 87.2248 	 
H 	 40.6624 	 9.21063 	 87.5803 	 
H 	 41.3611 	 7.58835 	 88.0154 	 
C 	 39.6476 	 7.44738 	 86.7214 	 
H 	 39.2217 	 8.03893 	 85.8734 	 
H 	 38.8414 	 7.51375 	 87.416 	 
C 	 39.9345 	 5.97397 	 86.3085 	 
H 	 40.63 	 5.49291 	 87.0209 	 
H 	 40.5782 	 5.92174 	 85.423 	 
H 	 39.0731 	 5.27289 	 86.2074 	 
H 	 46.3877 	 4.89894 	 88.5289 	 
H 	 42.9079 	 10.4901 	 83.7481 	 
