34

S 	 -40.4131 	 13.0023 	 75.2908 	 
C 	 -40.275 	 13.084 	 73.5275 	 
C 	 -41.5441 	 13.1228 	 72.9527 	 
C 	 -42.5779 	 13.2049 	 73.9546 	 
C 	 -42.1821 	 13.0947 	 75.2648 	 
H 	 -43.6254 	 13.1559 	 73.7677 	 
C 	 -41.8094 	 12.9936 	 71.4883 	 
H 	 -42.6114 	 12.2729 	 71.2905 	 
H 	 -40.9484 	 12.3853 	 71.1476 	 
C 	 -41.9215 	 14.2858 	 70.7609 	 
H 	 -40.9962 	 14.8558 	 70.7517 	 
H 	 -42.002 	 13.9285 	 69.7456 	 
C 	 -43.1339 	 15.1608 	 71.2296 	 
H 	 -43.8869 	 14.4489 	 71.6244 	 
H 	 -42.7053 	 15.8886 	 71.9049 	 
H 	 -43.5671 	 15.8364 	 70.5121 	 
S 	 -44.5508 	 13.9047 	 76.4183 	 
C 	 -44.7326 	 13.5042 	 78.1298 	 
C 	 -43.8661 	 12.5852 	 78.6673 	 
C 	 -42.8798 	 12.3858 	 77.646 	 
C 	 -43.031 	 13.0413 	 76.4236 	 
H 	 -43.9855 	 12.1674 	 79.6671 	 
C 	 -41.7374 	 11.4973 	 78.0051 	 
H 	 -40.925 	 12.1186 	 78.4105 	 
H 	 -41.2514 	 11.1863 	 77.1116 	 
C 	 -42.0134 	 10.1539 	 78.8748 	 
H 	 -42.0897 	 10.4896 	 79.9202 	 
H 	 -41.1446 	 9.4935 	 78.7325 	 
C 	 -43.2795 	 9.41787 	 78.3943 	 
H 	 -43.2312 	 8.88108 	 77.3906 	 
H 	 -44.204 	 9.92319 	 78.2413 	 
H 	 -43.5158 	 8.62988 	 79.0277 	 
H 	 -39.2678 	 12.9374 	 72.9774 	 
H 	 -45.5207 	 13.8844 	 78.7872 	 
