34

S 	 -20.3534 	 35.5467 	 36.6069 	 
C 	 -20.6661 	 35.8754 	 34.9508 	 
C 	 -20.9639 	 34.72 	 34.2543 	 
C 	 -20.7925 	 33.5032 	 34.9648 	 
C 	 -20.2899 	 33.8203 	 36.2262 	 
H 	 -20.902 	 32.5026 	 34.5958 	 
C 	 -21.2323 	 34.8489 	 32.7386 	 
H 	 -21.7442 	 35.7149 	 32.5158 	 
H 	 -21.8986 	 34.0925 	 32.4231 	 
C 	 -19.9921 	 34.8562 	 31.8273 	 
H 	 -20.27 	 34.7946 	 30.805 	 
H 	 -19.4634 	 35.8344 	 31.9376 	 
C 	 -19.0676 	 33.6912 	 32.1578 	 
H 	 -18.4799 	 33.4104 	 31.3538 	 
H 	 -18.4365 	 33.8674 	 33.0002 	 
H 	 -19.6568 	 32.7755 	 32.4032 	 
S 	 -20.9473 	 32.8942 	 38.7883 	 
C 	 -20.102 	 31.406 	 39.3603 	 
C 	 -19.1032 	 30.9794 	 38.5428 	 
C 	 -19.1167 	 31.7843 	 37.2936 	 
C 	 -20.0512 	 32.8283 	 37.2457 	 
H 	 -18.4767 	 30.1853 	 38.9313 	 
C 	 -18.1999 	 31.4462 	 36.0637 	 
H 	 -17.2534 	 31.2218 	 36.6082 	 
H 	 -17.9691 	 32.2497 	 35.4648 	 
C 	 -18.6833 	 30.2224 	 35.2431 	 
H 	 -18.1124 	 30.2227 	 34.3063 	 
H 	 -19.7349 	 30.3894 	 34.8798 	 
C 	 -18.4705 	 28.949 	 36.068 	 
H 	 -17.4888 	 28.9192 	 36.4684 	 
H 	 -18.656 	 28.1077 	 35.3894 	 
H 	 -19.0663 	 28.926 	 36.9594 	 
H 	 -20.6806 	 36.8695 	 34.5492 	 
H 	 -20.2819 	 30.9371 	 40.3135 	 
