34

S 	 -12.0964 	 68.374 	 49.839 	 
C 	 -12.421 	 67.0489 	 48.7261 	 
C 	 -13.7408 	 67.1128 	 48.2283 	 
C 	 -14.4317 	 68.2371 	 48.6545 	 
C 	 -13.728 	 69.0002 	 49.5299 	 
H 	 -15.5413 	 68.5135 	 48.4122 	 
C 	 -14.2204 	 66.1748 	 47.2043 	 
H 	 -13.72 	 65.2656 	 47.4507 	 
H 	 -13.938 	 66.5514 	 46.1392 	 
C 	 -15.7344 	 65.8552 	 47.3873 	 
H 	 -15.9294 	 65.8036 	 48.4028 	 
H 	 -16.2516 	 66.7661 	 47.0033 	 
C 	 -16.2741 	 64.5279 	 46.7218 	 
H 	 -17.3126 	 64.5938 	 46.9849 	 
H 	 -16.2503 	 64.4933 	 45.618 	 
H 	 -15.8601 	 63.6541 	 47.1258 	 
S 	 -15.9575 	 70.4151 	 50.3845 	 
C 	 -15.848 	 72.134 	 50.6188 	 
C 	 -14.556 	 72.5615 	 50.6848 	 
C 	 -13.5987 	 71.5495 	 50.345 	 
C 	 -14.1741 	 70.2335 	 50.1412 	 
H 	 -14.3977 	 73.5851 	 50.8708 	 
C 	 -12.1299 	 71.9239 	 49.9995 	 
H 	 -11.7016 	 70.9992 	 49.6721 	 
H 	 -11.7004 	 72.2882 	 50.9314 	 
C 	 -12.0492 	 72.7151 	 48.6845 	 
H 	 -12.3613 	 73.6769 	 49.072 	 
H 	 -12.7756 	 72.3991 	 47.9314 	 
C 	 -10.6375 	 72.6787 	 48.0116 	 
H 	 -10.2764 	 71.7973 	 47.4893 	 
H 	 -9.87923 	 72.8742 	 48.7549 	 
H 	 -10.5415 	 73.5347 	 47.289 	 
H 	 -11.6122 	 66.3071 	 48.5041 	 
H 	 -16.5889 	 72.8946 	 50.7985 	 
