34

S 	 49.9301 	 6.10166 	 87.4586 	 
C 	 49.8 	 7.85441 	 87.2855 	 
C 	 49.8563 	 8.29632 	 86.0142 	 
C 	 50.1175 	 7.19973 	 85.1168 	 
C 	 50.297 	 6.00555 	 85.7686 	 
H 	 50.3205 	 7.24567 	 84.0562 	 
C 	 49.5062 	 9.7348 	 85.6034 	 
H 	 50.2771 	 10.1145 	 84.9054 	 
H 	 49.5959 	 10.4082 	 86.4701 	 
C 	 48.0561 	 9.88413 	 85.015 	 
H 	 47.7354 	 9.00015 	 84.4652 	 
H 	 47.4405 	 10.125 	 85.8511 	 
C 	 48.0917 	 11.1258 	 84.0414 	 
H 	 48.4809 	 10.8639 	 83.0712 	 
H 	 47.1151 	 11.5959 	 84.0775 	 
H 	 48.7757 	 11.8737 	 84.5544 	 
S 	 50.19 	 4.67643 	 83.4088 	 
C 	 51.0268 	 3.20239 	 83.1432 	 
C 	 51.8666 	 2.94819 	 84.1848 	 
C 	 51.6291 	 3.80824 	 85.3178 	 
C 	 50.6937 	 4.7789 	 85.0813 	 
H 	 52.4289 	 2.10593 	 84.2909 	 
C 	 52.4793 	 3.7373 	 86.609 	 
H 	 52.6947 	 4.75865 	 86.8983 	 
H 	 53.4353 	 3.24972 	 86.3551 	 
C 	 51.9332 	 2.91134 	 87.8138 	 
H 	 51.734 	 1.96835 	 87.3194 	 
H 	 50.9165 	 3.31904 	 88.1472 	 
C 	 52.9138 	 2.77782 	 89.0102 	 
H 	 53.1776 	 3.79208 	 89.2898 	 
H 	 53.8534 	 2.23603 	 88.7188 	 
H 	 52.3588 	 2.42229 	 89.92 	 
H 	 49.4496 	 8.52645 	 88.0823 	 
H 	 50.9953 	 2.63798 	 82.2224 	 
