34

S 	 -3.36766 	 -3.99206 	 80.7867 	 
C 	 -3.78856 	 -5.62616 	 80.6224 	 
C 	 -3.55909 	 -6.36709 	 81.7888 	 
C 	 -3.14179 	 -5.49188 	 82.8742 	 
C 	 -2.88816 	 -4.19504 	 82.4963 	 
H 	 -2.75113 	 -5.80204 	 83.7971 	 
C 	 -3.74944 	 -7.85209 	 81.9792 	 
H 	 -2.76578 	 -8.24246 	 81.8642 	 
H 	 -4.33074 	 -8.18866 	 81.083 	 
C 	 -4.47774 	 -8.45416 	 83.1755 	 
H 	 -4.44596 	 -9.55926 	 83.224 	 
H 	 -4.01577 	 -8.18081 	 84.1345 	 
C 	 -5.87062 	 -7.99909 	 83.2269 	 
H 	 -6.41314 	 -8.47665 	 84.0461 	 
H 	 -5.82743 	 -6.87477 	 83.3978 	 
H 	 -6.44124 	 -8.17043 	 82.2225 	 
S 	 -2.74761 	 -1.45943 	 82.8581 	 
C 	 -2.31124 	 -0.927523 	 84.4481 	 
C 	 -1.64875 	 -1.83049 	 85.2388 	 
C 	 -1.77146 	 -3.10895 	 84.6129 	 
C 	 -2.41269 	 -3.0998 	 83.3541 	 
H 	 -1.22895 	 -1.60258 	 86.1927 	 
C 	 -1.26266 	 -4.34184 	 85.3304 	 
H 	 -0.442595 	 -4.02606 	 85.9845 	 
H 	 -0.757795 	 -4.86754 	 84.5456 	 
C 	 -2.29816 	 -5.07139 	 86.2409 	 
H 	 -1.84072 	 -6.08204 	 86.2373 	 
H 	 -3.3589 	 -5.184 	 85.8549 	 
C 	 -2.43266 	 -4.52551 	 87.6262 	 
H 	 -1.54264 	 -4.64182 	 88.2298 	 
H 	 -3.24862 	 -4.99482 	 88.1609 	 
H 	 -2.49302 	 -3.47731 	 87.4463 	 
H 	 -4.16764 	 -6.11209 	 79.6811 	 
H 	 -2.3708 	 0.119834 	 84.7456 	 
