34

S 	 -38.5789 	 64.8931 	 145.468 	 
C 	 -38.4538 	 64.8069 	 143.755 	 
C 	 -39.4416 	 65.6253 	 143.189 	 
C 	 -40.3737 	 66.0165 	 144.214 	 
C 	 -40.1023 	 65.6718 	 145.475 	 
H 	 -41.2954 	 66.5462 	 144.094 	 
C 	 -39.6203 	 66.003 	 141.686 	 
H 	 -40.4386 	 65.5552 	 141.262 	 
H 	 -38.7891 	 65.3592 	 141.296 	 
C 	 -39.3811 	 67.4275 	 141.162 	 
H 	 -38.5966 	 67.8873 	 141.837 	 
H 	 -39.0596 	 67.476 	 140.137 	 
C 	 -40.6768 	 68.1932 	 141.29 	 
H 	 -41.095 	 68.3652 	 142.3 	 
H 	 -40.5884 	 69.1244 	 140.752 	 
H 	 -41.4649 	 67.7 	 140.727 	 
S 	 -41.5909 	 64.7838 	 147.554 	 
C 	 -42.2903 	 65.9108 	 148.669 	 
C 	 -41.6793 	 67.1289 	 148.588 	 
C 	 -40.9364 	 67.3073 	 147.381 	 
C 	 -40.7755 	 66.0796 	 146.678 	 
H 	 -42.0026 	 67.9798 	 149.148 	 
C 	 -40.3399 	 68.6111 	 147.031 	 
H 	 -40.9485 	 69.4036 	 147.461 	 
H 	 -40.3939 	 68.7753 	 145.952 	 
C 	 -38.872 	 68.868 	 147.39 	 
H 	 -38.2821 	 68.1964 	 146.747 	 
H 	 -38.6124 	 68.5886 	 148.459 	 
C 	 -38.541 	 70.2931 	 147.087 	 
H 	 -38.4113 	 70.3303 	 145.993 	 
H 	 -37.6092 	 70.7131 	 147.491 	 
H 	 -39.2932 	 71.0259 	 147.288 	 
H 	 -37.6205 	 64.3298 	 143.25 	 
H 	 -43.0504 	 65.6224 	 149.446 	 
