34

S 	 2.67419 	 -8.09533 	 74.241 	 
C 	 1.09293 	 -7.65491 	 73.8202 	 
C 	 0.548031 	 -6.64768 	 74.6328 	 
C 	 1.49881 	 -6.22616 	 75.5812 	 
C 	 2.70307 	 -6.88102 	 75.4319 	 
H 	 1.44277 	 -5.31738 	 76.1738 	 
C 	 -0.791392 	 -5.99234 	 74.4071 	 
H 	 -1.30817 	 -5.66371 	 75.2897 	 
H 	 -1.47471 	 -6.70152 	 73.937 	 
C 	 -0.694385 	 -4.69066 	 73.6131 	 
H 	 -1.64662 	 -4.13524 	 73.6353 	 
H 	 -0.0248789 	 -3.96662 	 74.0966 	 
C 	 -0.329919 	 -4.82033 	 72.1281 	 
H 	 0.0808755 	 -3.85661 	 71.7769 	 
H 	 0.526594 	 -5.39159 	 72.0136 	 
H 	 -1.16206 	 -5.2315 	 71.5818 	 
S 	 5.3969 	 -6.27828 	 75.1785 	 
C 	 6.25782 	 -5.7052 	 76.6166 	 
C 	 5.46407 	 -5.84128 	 77.767 	 
C 	 4.14675 	 -6.33323 	 77.5784 	 
C 	 3.96944 	 -6.5921 	 76.1646 	 
H 	 5.93091 	 -5.4952 	 78.7165 	 
C 	 3.11708 	 -6.55963 	 78.6819 	 
H 	 3.52399 	 -7.13984 	 79.5338 	 
H 	 2.34896 	 -7.21907 	 78.3374 	 
C 	 2.47649 	 -5.25611 	 79.3136 	 
H 	 1.69793 	 -5.58727 	 79.9741 	 
H 	 1.98072 	 -4.68282 	 78.5102 	 
C 	 3.5327 	 -4.36744 	 79.9633 	 
H 	 3.98905 	 -3.76538 	 79.1636 	 
H 	 4.13089 	 -4.97672 	 80.6011 	 
H 	 3.17169 	 -3.60913 	 80.6124 	 
H 	 0.586578 	 -8.28435 	 73.0394 	 
H 	 7.23949 	 -5.2318 	 76.5293 	 
