34

S 	 2.91268 	 35.379 	 36.0015 	 
C 	 3.17368 	 33.7845 	 36.566 	 
C 	 2.04797 	 33.1016 	 36.7658 	 
C 	 0.889063 	 33.9135 	 36.486 	 
C 	 1.17255 	 35.1623 	 36.0432 	 
H 	 -0.130029 	 33.6969 	 36.5979 	 
C 	 2.08721 	 31.6651 	 37.1739 	 
H 	 2.36383 	 31.5251 	 38.2652 	 
H 	 3.00421 	 31.2946 	 36.7187 	 
C 	 0.849176 	 30.8095 	 36.7218 	 
H 	 -0.0824052 	 31.2052 	 37.0917 	 
H 	 0.812098 	 30.7976 	 35.6177 	 
C 	 1.13858 	 29.3928 	 37.3309 	 
H 	 0.306977 	 28.7204 	 37.1592 	 
H 	 1.98989 	 29.0004 	 36.8189 	 
H 	 1.40574 	 29.3886 	 38.3718 	 
S 	 0.152846 	 36.4652 	 33.8927 	 
C 	 -0.970809 	 37.7858 	 34.1307 	 
C 	 -1.4046 	 37.8697 	 35.481 	 
C 	 -0.765046 	 36.8746 	 36.2824 	 
C 	 0.192968 	 36.1451 	 35.6387 	 
H 	 -2.26876 	 38.5077 	 35.8223 	 
C 	 -1.1283 	 36.7115 	 37.7762 	 
H 	 -1.19604 	 37.6595 	 38.3021 	 
H 	 -0.235269 	 36.1905 	 38.2009 	 
C 	 -2.4606 	 35.953 	 38.012 	 
H 	 -2.31402 	 35.0233 	 37.5132 	 
H 	 -3.32019 	 36.5545 	 37.6734 	 
C 	 -2.7313 	 35.5838 	 39.4869 	 
H 	 -1.8395 	 35.2672 	 40.0998 	 
H 	 -3.5182 	 34.7857 	 39.5298 	 
H 	 -3.21839 	 36.3922 	 40.0819 	 
H 	 4.21891 	 33.4444 	 36.6093 	 
H 	 -1.48413 	 38.3298 	 33.3184 	 
