34

S 	 -1.38828 	 -8.28926 	 83.2828 	 
C 	 -3.10983 	 -8.24695 	 82.8854 	 
C 	 -3.89141 	 -8.89884 	 83.8391 	 
C 	 -3.15978 	 -9.17591 	 85.0815 	 
C 	 -1.8249 	 -8.72381 	 84.9478 	 
H 	 -3.50503 	 -9.61615 	 86.0388 	 
C 	 -5.40585 	 -9.167 	 83.7302 	 
H 	 -5.84049 	 -8.34064 	 83.1436 	 
H 	 -5.85419 	 -9.12122 	 84.7811 	 
C 	 -5.70829 	 -10.5366 	 83.1285 	 
H 	 -6.72781 	 -10.747 	 83.2202 	 
H 	 -5.41116 	 -10.5225 	 82.1017 	 
C 	 -5.07483 	 -11.6786 	 83.9157 	 
H 	 -5.2722 	 -11.5751 	 85.0037 	 
H 	 -5.48314 	 -12.593 	 83.5972 	 
H 	 -4.00843 	 -11.8147 	 83.8088 	 
S 	 0.771325 	 -9.50229 	 85.43 	 
C 	 1.33549 	 -9.64383 	 87.0498 	 
C 	 0.617477 	 -8.82191 	 87.8867 	 
C 	 -0.66366 	 -8.42428 	 87.3248 	 
C 	 -0.719085 	 -8.71618 	 85.9395 	 
H 	 1.02493 	 -8.78925 	 88.8544 	 
C 	 -1.69653 	 -7.77611 	 88.2457 	 
H 	 -1.52852 	 -7.95366 	 89.3967 	 
H 	 -2.60707 	 -8.42198 	 88.0437 	 
C 	 -2.01853 	 -6.28419 	 87.9955 	 
H 	 -2.99054 	 -6.14033 	 88.5933 	 
H 	 -2.29154 	 -6.11051 	 86.9329 	 
C 	 -0.967432 	 -5.3323 	 88.6913 	 
H 	 -0.0202835 	 -5.59439 	 88.2531 	 
H 	 -1.0044 	 -5.58879 	 89.7383 	 
H 	 -1.28648 	 -4.3259 	 88.3915 	 
H 	 -3.45372 	 -7.9871 	 81.8973 	 
H 	 2.23965 	 -10.1411 	 87.4296 	 
