34

S 	 37.6452 	 5.70366 	 87.261 	 
C 	 37.2399 	 6.24194 	 85.6946 	 
C 	 36.6267 	 5.19271 	 85.0068 	 
C 	 36.4601 	 4.02293 	 85.7759 	 
C 	 36.9935 	 4.07937 	 87.0013 	 
H 	 36.072 	 3.14157 	 85.4286 	 
C 	 36.2023 	 5.25472 	 83.5134 	 
H 	 36.5111 	 6.04735 	 82.9223 	 
H 	 35.1485 	 5.38276 	 83.6429 	 
C 	 36.4589 	 4.00231 	 82.6226 	 
H 	 35.6471 	 3.33813 	 82.938 	 
H 	 36.2423 	 4.21725 	 81.5563 	 
C 	 37.8443 	 3.35632 	 82.7998 	 
H 	 38.0145 	 2.81844 	 83.7087 	 
H 	 38.0106 	 2.61563 	 82.0214 	 
H 	 38.5784 	 4.08938 	 82.6413 	 
S 	 35.3442 	 2.19455 	 88.2098 	 
C 	 36.0476 	 1.13779 	 89.3603 	 
C 	 37.408 	 1.35772 	 89.5397 	 
C 	 37.9111 	 2.47257 	 88.8051 	 
C 	 36.9256 	 2.98196 	 87.9699 	 
H 	 37.9689 	 0.775365 	 90.2813 	 
C 	 39.3024 	 2.99755 	 88.9426 	 
H 	 39.4364 	 3.26182 	 89.9535 	 
H 	 39.2449 	 3.99596 	 88.404 	 
C 	 40.4199 	 1.95351 	 88.5545 	 
H 	 40.2083 	 1.69812 	 87.5407 	 
H 	 40.3141 	 1.0256 	 89.0839 	 
C 	 41.7989 	 2.45619 	 88.7102 	 
H 	 42.6401 	 1.8271 	 88.4956 	 
H 	 41.8779 	 2.95675 	 89.6746 	 
H 	 41.9049 	 3.28422 	 87.9792 	 
H 	 37.4169 	 7.23746 	 85.249 	 
H 	 35.493 	 0.53042 	 90.0857 	 
