34

S 	 0.57126 	 -7.97314 	 82.3755 	 
C 	 -0.90956 	 -8.65738 	 81.7184 	 
C 	 -1.63795 	 -9.29326 	 82.7552 	 
C 	 -0.999234 	 -9.21242 	 84.0511 	 
C 	 0.177675 	 -8.49364 	 84.0433 	 
H 	 -1.33895 	 -9.7325 	 84.954 	 
C 	 -2.79654 	 -10.2884 	 82.5915 	 
H 	 -2.21928 	 -11.1851 	 82.4413 	 
H 	 -3.27469 	 -10.0211 	 81.616 	 
C 	 -3.8649 	 -10.5794 	 83.6905 	 
H 	 -4.51949 	 -11.3428 	 83.3983 	 
H 	 -3.36794 	 -10.9323 	 84.5227 	 
C 	 -4.69029 	 -9.32199 	 84.0527 	 
H 	 -5.32289 	 -9.58223 	 84.8621 	 
H 	 -4.08471 	 -8.46357 	 84.4028 	 
H 	 -5.20234 	 -8.9 	 83.1533 	 
S 	 2.33583 	 -9.89886 	 84.9949 	 
C 	 2.88916 	 -9.75461 	 86.6409 	 
C 	 2.20132 	 -8.69782 	 87.2682 	 
C 	 1.26547 	 -8.02287 	 86.408 	 
C 	 1.14471 	 -8.54837 	 85.1394 	 
H 	 2.53627 	 -8.43913 	 88.2055 	 
C 	 0.386121 	 -6.91235 	 86.9726 	 
H 	 0.361761 	 -7.04974 	 88.044 	 
H 	 -0.644779 	 -7.04449 	 86.7319 	 
C 	 0.847101 	 -5.4524 	 86.8435 	 
H 	 0.282269 	 -4.98043 	 87.6613 	 
H 	 0.572246 	 -5.18168 	 85.7643 	 
C 	 2.3261 	 -5.15602 	 87.152 	 
H 	 2.50502 	 -4.11814 	 87.0016 	 
H 	 3.05359 	 -5.6987 	 86.5215 	 
H 	 2.63592 	 -5.48476 	 88.1438 	 
H 	 -1.27654 	 -8.68808 	 80.7288 	 
H 	 3.6134 	 -10.295 	 87.1946 	 
