34

S 	 37.7935 	 12.8319 	 81.6213 	 
C 	 38.1137 	 14.544 	 81.3319 	 
C 	 38.2549 	 15.2127 	 82.5029 	 
C 	 37.7569 	 14.4507 	 83.6176 	 
C 	 37.4817 	 13.1209 	 83.3028 	 
H 	 37.7269 	 14.75 	 84.684 	 
C 	 38.9107 	 16.5988 	 82.6513 	 
H 	 38.6316 	 17.0526 	 83.5768 	 
H 	 38.6095 	 17.2656 	 81.8247 	 
C 	 40.491 	 16.6187 	 82.618 	 
H 	 40.7236 	 16.3518 	 81.6275 	 
H 	 40.8886 	 17.6293 	 82.6383 	 
C 	 41.2013 	 15.6738 	 83.5476 	 
H 	 42.2028 	 16.0439 	 83.7279 	 
H 	 40.7151 	 15.6145 	 84.5228 	 
H 	 41.2917 	 14.8006 	 82.887 	 
S 	 35.4577 	 11.7882 	 84.3465 	 
C 	 35.7916 	 10.4966 	 85.4019 	 
C 	 37.1059 	 10.2934 	 85.5207 	 
C 	 37.9395 	 11.2029 	 84.8762 	 
C 	 37.1412 	 12.0473 	 84.1899 	 
H 	 37.4806 	 9.61303 	 86.1946 	 
C 	 39.4227 	 11.2512 	 85.1055 	 
H 	 39.9607 	 11.0954 	 84.1717 	 
H 	 39.5923 	 10.3403 	 85.6603 	 
C 	 40.0395 	 12.4702 	 85.8776 	 
H 	 40.0088 	 13.4753 	 85.4125 	 
H 	 41.0876 	 12.3735 	 85.809 	 
C 	 39.69 	 12.384 	 87.3929 	 
H 	 38.7592 	 12.9091 	 87.5612 	 
H 	 40.3624 	 12.923 	 88.0955 	 
H 	 39.5424 	 11.3639 	 87.7887 	 
H 	 38.4364 	 15.0321 	 80.4343 	 
H 	 35.1595 	 9.74267 	 85.9632 	 
