34

S 	 -49.5856 	 60.5003 	 127.934 	 
C 	 -49.2408 	 58.84 	 127.766 	 
C 	 -48.5218 	 58.3341 	 128.798 	 
C 	 -48.2255 	 59.3402 	 129.74 	 
C 	 -48.9632 	 60.4932 	 129.567 	 
H 	 -47.6431 	 59.2516 	 130.683 	 
C 	 -47.7792 	 57.0103 	 128.947 	 
H 	 -48.6214 	 56.2235 	 129.138 	 
H 	 -47.1514 	 57.1176 	 129.866 	 
C 	 -46.9156 	 56.6163 	 127.667 	 
H 	 -46.2144 	 55.7989 	 127.901 	 
H 	 -47.5593 	 56.3038 	 126.787 	 
C 	 -45.9656 	 57.7755 	 127.33 	 
H 	 -45.7491 	 57.6932 	 126.226 	 
H 	 -46.4194 	 58.7866 	 127.541 	 
H 	 -45.0306 	 57.6952 	 127.881 	 
S 	 -47.8802 	 62.9126 	 130.059 	 
C 	 -48.1491 	 63.7723 	 131.525 	 
C 	 -48.9808 	 62.9849 	 132.29 	 
C 	 -49.412 	 61.7509 	 131.723 	 
C 	 -48.8996 	 61.5735 	 130.453 	 
H 	 -49.2305 	 63.4177 	 133.298 	 
C 	 -50.2578 	 60.6657 	 132.511 	 
H 	 -50.3924 	 59.7438 	 131.949 	 
H 	 -51.0882 	 61.2927 	 132.826 	 
C 	 -49.6933 	 60.1952 	 133.873 	 
H 	 -49.9126 	 61.0296 	 134.531 	 
H 	 -48.6261 	 60.1375 	 133.775 	 
C 	 -50.1099 	 58.8123 	 134.47 	 
H 	 -49.4211 	 58.5688 	 135.253 	 
H 	 -50.1333 	 58.0502 	 133.636 	 
H 	 -51.0733 	 58.9198 	 134.915 	 
H 	 -49.287 	 58.2174 	 126.901 	 
H 	 -47.654 	 64.6489 	 131.913 	 
