34

S 	 -74.1906 	 33.7436 	 123.284 	 
C 	 -74.2874 	 32.9083 	 121.691 	 
C 	 -74.2369 	 33.8091 	 120.677 	 
C 	 -74.2597 	 35.1875 	 121.059 	 
C 	 -74.2993 	 35.3566 	 122.438 	 
H 	 -74.2916 	 36.0462 	 120.435 	 
C 	 -74.2042 	 33.3795 	 119.196 	 
H 	 -74.9916 	 33.9114 	 118.567 	 
H 	 -74.6305 	 32.4029 	 119.32 	 
C 	 -72.7617 	 33.2962 	 118.584 	 
H 	 -72.8142 	 33.0188 	 117.514 	 
H 	 -72.3876 	 34.2852 	 118.611 	 
C 	 -71.9352 	 32.448 	 119.436 	 
H 	 -71.0438 	 32.1106 	 118.97 	 
H 	 -71.623 	 32.9213 	 120.306 	 
H 	 -72.4972 	 31.5175 	 119.759 	 
S 	 -76.0091 	 37.1292 	 123.712 	 
C 	 -75.481 	 38.6573 	 124.385 	 
C 	 -74.1098 	 38.7527 	 124.211 	 
C 	 -73.5862 	 37.6817 	 123.376 	 
C 	 -74.4565 	 36.6877 	 123.018 	 
H 	 -73.7237 	 39.6974 	 124.562 	 
C 	 -72.085 	 37.5372 	 123.046 	 
H 	 -72.0162 	 38.5723 	 122.712 	 
H 	 -72.0886 	 36.9258 	 122.213 	 
C 	 -71.2291 	 37.0599 	 124.259 	 
H 	 -71.5623 	 36.1024 	 124.691 	 
H 	 -71.468 	 37.7929 	 125.068 	 
C 	 -69.7348 	 36.9739 	 123.999 	 
H 	 -69.49 	 36.4043 	 123.147 	 
H 	 -69.3249 	 36.3681 	 124.777 	 
H 	 -69.2442 	 37.8724 	 123.878 	 
H 	 -74.4221 	 31.8446 	 121.545 	 
H 	 -76.1659 	 39.3123 	 124.852 	 
