34

S 	 -38.0956 	 53.7189 	 101.877 	 
C 	 -39.0057 	 52.6586 	 100.838 	 
C 	 -39.9988 	 53.3088 	 100.195 	 
C 	 -39.7051 	 54.7176 	 100.11 	 
C 	 -38.7219 	 55.0889 	 101.02 	 
H 	 -40.2843 	 55.3719 	 99.4399 	 
C 	 -41.249 	 52.7518 	 99.5307 	 
H 	 -41.4907 	 53.4174 	 98.8075 	 
H 	 -42.0651 	 52.7485 	 100.331 	 
C 	 -41.0905 	 51.3177 	 98.9769 	 
H 	 -41.6763 	 51.2292 	 98.007 	 
H 	 -40.1034 	 51.2933 	 98.3818 	 
C 	 -41.2863 	 50.194 	 99.9766 	 
H 	 -40.9488 	 49.3048 	 99.4702 	 
H 	 -40.5153 	 50.2071 	 100.691 	 
H 	 -42.3237 	 50.0547 	 100.261 	 
S 	 -39.0545 	 56.7663 	 103.185 	 
C 	 -38.6146 	 58.4977 	 103.131 	 
C 	 -38.0051 	 58.7756 	 101.942 	 
C 	 -37.9285 	 57.6283 	 100.988 	 
C 	 -38.4532 	 56.4636 	 101.546 	 
H 	 -37.6821 	 59.8385 	 101.786 	 
C 	 -37.3095 	 57.7358 	 99.6236 	 
H 	 -36.6933 	 58.6834 	 99.6235 	 
H 	 -38.0016 	 57.8757 	 98.8691 	 
C 	 -36.3743 	 56.6295 	 99.1217 	 
H 	 -36.9545 	 55.6464 	 98.9255 	 
H 	 -35.6473 	 56.2909 	 99.9032 	 
C 	 -35.4921 	 57.0187 	 97.9204 	 
H 	 -34.8626 	 57.8625 	 98.2245 	 
H 	 -36.0699 	 57.1857 	 97.0257 	 
H 	 -34.7485 	 56.199 	 97.7402 	 
H 	 -38.9588 	 51.6226 	 100.868 	 
H 	 -38.6142 	 59.1714 	 103.955 	 
