34

S 	 52.9627 	 23.8572 	 91.6638 	 
C 	 51.9868 	 23.6517 	 93.0791 	 
C 	 52.648 	 23.2101 	 94.2035 	 
C 	 54.0525 	 22.9612 	 93.8457 	 
C 	 54.3601 	 23.3125 	 92.5686 	 
H 	 54.8487 	 22.5562 	 94.4702 	 
C 	 52.0386 	 23.0152 	 95.5661 	 
H 	 52.5219 	 22.0631 	 95.7666 	 
H 	 51.0211 	 22.865 	 95.3856 	 
C 	 52.317 	 24.1114 	 96.58 	 
H 	 52.1974 	 23.6998 	 97.588 	 
H 	 53.3396 	 24.3837 	 96.5754 	 
C 	 51.5727 	 25.3833 	 96.2673 	 
H 	 50.4834 	 25.245 	 96.1215 	 
H 	 51.6089 	 26.0383 	 97.1465 	 
H 	 52.0375 	 25.9135 	 95.4305 	 
S 	 56.9945 	 23.7131 	 92.7958 	 
C 	 58.0616 	 22.8153 	 91.8 	 
C 	 57.3764 	 22.1736 	 90.8661 	 
C 	 55.969 	 22.1723 	 90.9585 	 
C 	 55.6423 	 23.0509 	 91.9902 	 
H 	 57.8807 	 21.6161 	 90.0636 	 
C 	 55.1505 	 21.4158 	 89.8991 	 
H 	 55.8812 	 20.9065 	 89.3367 	 
H 	 54.7131 	 22.2219 	 89.335 	 
C 	 54.2002 	 20.3025 	 90.4616 	 
H 	 53.558 	 19.8736 	 89.7048 	 
H 	 53.5583 	 20.7845 	 91.2391 	 
C 	 54.9341 	 19.1073 	 91.0344 	 
H 	 54.3948 	 18.3291 	 91.5651 	 
H 	 55.6054 	 19.4959 	 91.807 	 
H 	 55.5982 	 18.6656 	 90.2822 	 
H 	 50.9476 	 23.8976 	 93.0545 	 
H 	 59.0714 	 22.9853 	 91.89 	 
