34

S 	 -2.63794 	 -10.6427 	 86.4294 	 
C 	 -2.06629 	 -12.2513 	 86.3166 	 
C 	 -3.16206 	 -13.0992 	 86.1285 	 
C 	 -4.32391 	 -12.4417 	 85.6769 	 
C 	 -4.20121 	 -11.0483 	 85.808 	 
H 	 -5.28361 	 -12.9097 	 85.4202 	 
C 	 -3.07568 	 -14.6592 	 86.2272 	 
H 	 -2.32721 	 -14.8683 	 85.4983 	 
H 	 -4.00384 	 -15.0834 	 85.9579 	 
C 	 -2.6335 	 -15.1241 	 87.594 	 
H 	 -1.58773 	 -15.1986 	 87.6307 	 
H 	 -3.0738 	 -14.5073 	 88.3851 	 
C 	 -3.15874 	 -16.6318 	 87.8983 	 
H 	 -2.86898 	 -17.2496 	 87.0241 	 
H 	 -2.81279 	 -17.0952 	 88.8189 	 
H 	 -4.25832 	 -16.5888 	 87.907 	 
S 	 -4.26528 	 -8.76422 	 84.1068 	 
C 	 -5.77813 	 -8.03906 	 83.7989 	 
C 	 -6.79974 	 -8.66954 	 84.5367 	 
C 	 -6.39575 	 -9.8607 	 85.2338 	 
C 	 -5.00339 	 -10.0168 	 85.1534 	 
H 	 -7.80521 	 -8.34844 	 84.3879 	 
C 	 -7.34023 	 -10.7467 	 85.9601 	 
H 	 -8.07913 	 -10.2361 	 86.5564 	 
H 	 -6.86937 	 -11.2683 	 86.7763 	 
C 	 -7.99291 	 -11.8537 	 85.1222 	 
H 	 -7.15938 	 -12.3615 	 84.4732 	 
H 	 -8.76335 	 -11.2772 	 84.5575 	 
C 	 -8.63322 	 -12.9403 	 86.0274 	 
H 	 -8.05267 	 -13.0364 	 86.9784 	 
H 	 -8.50271 	 -14.0059 	 85.5583 	 
H 	 -9.69588 	 -12.8422 	 86.2854 	 
H 	 -1.11532 	 -12.6561 	 86.6705 	 
H 	 -6.03586 	 -7.19608 	 83.1607 	 
