34

S 	 -84.9954 	 51.5741 	 134.734 	 
C 	 -85.0998 	 49.859 	 135.227 	 
C 	 -85.1929 	 48.9398 	 134.207 	 
C 	 -85.3483 	 49.6603 	 132.973 	 
C 	 -85.333 	 51.0151 	 133.038 	 
H 	 -85.4224 	 49.1258 	 132.096 	 
C 	 -84.9577 	 47.3784 	 134.38 	 
H 	 -85.323 	 46.9313 	 133.401 	 
H 	 -85.71 	 46.8993 	 135.062 	 
C 	 -83.5333 	 47.0055 	 134.65 	 
H 	 -83.1196 	 47.5218 	 135.526 	 
H 	 -83.4392 	 45.8859 	 134.818 	 
C 	 -82.6449 	 47.1404 	 133.508 	 
H 	 -82.8333 	 46.338 	 132.844 	 
H 	 -82.7393 	 48.0716 	 133.047 	 
H 	 -81.583 	 47.144 	 133.774 	 
S 	 -83.9194 	 53.2004 	 132.01 	 
C 	 -84.3948 	 53.9193 	 130.55 	 
C 	 -85.3725 	 53.2068 	 129.874 	 
C 	 -85.882 	 52.1164 	 130.685 	 
C 	 -85.2171 	 51.9754 	 131.921 	 
H 	 -85.8111 	 53.5974 	 128.925 	 
C 	 -87.005 	 51.2105 	 130.253 	 
H 	 -86.7392 	 50.1824 	 130.474 	 
H 	 -87.2655 	 51.2152 	 129.221 	 
C 	 -88.2716 	 51.5259 	 130.975 	 
H 	 -88.671 	 52.5176 	 130.765 	 
H 	 -88.1531 	 51.4572 	 132.06 	 
C 	 -89.4864 	 50.6433 	 130.579 	 
H 	 -89.3008 	 49.5696 	 130.72 	 
H 	 -89.6679 	 50.6949 	 129.508 	 
H 	 -90.379 	 50.9639 	 131.077 	 
H 	 -84.9091 	 49.5476 	 136.281 	 
H 	 -83.8367 	 54.8308 	 130.161 	 
