34

S 	 -2.50067 	 77.6791 	 52.5343 	 
C 	 -1.93798 	 78.5972 	 53.9658 	 
C 	 -1.73902 	 77.794 	 55.0799 	 
C 	 -1.92385 	 76.4038 	 54.7548 	 
C 	 -2.29089 	 76.2107 	 53.4547 	 
H 	 -1.78124 	 75.4733 	 55.3642 	 
C 	 -1.17379 	 78.239 	 56.3673 	 
H 	 -1.51431 	 77.4807 	 57.0606 	 
H 	 -1.78506 	 79.0827 	 56.6806 	 
C 	 0.371801 	 78.4741 	 56.5088 	 
H 	 0.712604 	 78.4401 	 57.5302 	 
H 	 0.715455 	 77.4961 	 56.0539 	 
C 	 0.944748 	 79.6859 	 55.7838 	 
H 	 0.712985 	 80.5623 	 56.3644 	 
H 	 2.05973 	 79.5514 	 55.4756 	 
H 	 0.440538 	 79.8204 	 54.8561 	 
S 	 -4.49379 	 74.9337 	 52.153 	 
C 	 -4.32252 	 73.2735 	 51.7367 	 
C 	 -3.2679 	 72.7286 	 52.3731 	 
C 	 -2.43039 	 73.6546 	 53.1572 	 
C 	 -2.84304 	 74.9283 	 52.9745 	 
H 	 -3.1188 	 71.7437 	 52.1087 	 
C 	 -1.04801 	 73.3127 	 53.6825 	 
H 	 -0.506474 	 74.153 	 54.1025 	 
H 	 -0.408196 	 72.9773 	 52.8657 	 
C 	 -0.948431 	 72.2026 	 54.7639 	 
H 	 0.0299242 	 71.8738 	 54.9808 	 
H 	 -1.31689 	 71.2918 	 54.3771 	 
C 	 -1.5371 	 72.5539 	 56.2063 	 
H 	 -2.55233 	 72.8178 	 56.2031 	 
H 	 -1.10733 	 73.5027 	 56.6304 	 
H 	 -1.2311 	 71.7638 	 56.899 	 
H 	 -1.53855 	 79.5783 	 53.9689 	 
H 	 -4.93202 	 72.7757 	 51.0236 	 
