34

S 	 9.11517 	 24.1887 	 66.8854 	 
C 	 8.45507 	 23.5761 	 65.3963 	 
C 	 7.36439 	 24.2626 	 64.9622 	 
C 	 7.08007 	 25.3581 	 65.8256 	 
C 	 7.89671 	 25.4687 	 66.9097 	 
H 	 6.39949 	 26.2048 	 65.6473 	 
C 	 6.53912 	 23.9816 	 63.7654 	 
H 	 5.49942 	 24.1894 	 63.9548 	 
H 	 6.59393 	 22.8732 	 63.6002 	 
C 	 6.97329 	 24.6594 	 62.4771 	 
H 	 6.21028 	 24.3127 	 61.7379 	 
H 	 6.88642 	 25.7392 	 62.6868 	 
C 	 8.33422 	 24.4022 	 61.9251 	 
H 	 8.57197 	 23.2668 	 61.9778 	 
H 	 8.43541 	 24.8385 	 60.8752 	 
H 	 9.01253 	 24.9452 	 62.6027 	 
S 	 9.39403 	 26.8902 	 68.72 	 
C 	 8.59293 	 27.9843 	 69.8969 	 
C 	 7.25586 	 27.745 	 69.7368 	 
C 	 6.77274 	 26.8424 	 68.7686 	 
C 	 7.84632 	 26.3884 	 68.018 	 
H 	 6.63315 	 28.1961 	 70.5332 	 
C 	 5.32633 	 26.3962 	 68.7234 	 
H 	 4.98746 	 26.5223 	 69.736 	 
H 	 5.39874 	 25.3483 	 68.6417 	 
C 	 4.46145 	 27.0285 	 67.6079 	 
H 	 4.8873 	 27.0436 	 66.6111 	 
H 	 4.54249 	 28.0778 	 67.8263 	 
C 	 3.06088 	 26.5383 	 67.5773 	 
H 	 2.71223 	 27.1529 	 66.7007 	 
H 	 2.46895 	 26.677 	 68.4483 	 
H 	 2.97992 	 25.5218 	 67.3686 	 
H 	 8.68496 	 22.6488 	 64.8262 	 
H 	 9.1086 	 28.621 	 70.5777 	 
