34

S 	 7.70251 	 -26.6453 	 85.6738 	 
C 	 6.08112 	 -26.06 	 85.5449 	 
C 	 5.89509 	 -25.2584 	 84.3884 	 
C 	 7.1168 	 -25.2408 	 83.606 	 
C 	 8.11066 	 -26.0379 	 84.0996 	 
H 	 7.28451 	 -24.6813 	 82.6895 	 
C 	 4.73036 	 -24.3332 	 84.0818 	 
H 	 4.14965 	 -24.2113 	 84.9762 	 
H 	 4.15076 	 -24.7594 	 83.271 	 
C 	 5.18431 	 -22.9778 	 83.6072 	 
H 	 5.77289 	 -22.4416 	 84.4212 	 
H 	 5.99389 	 -23.1276 	 82.8437 	 
C 	 4.13701 	 -22.0636 	 83.0413 	 
H 	 4.66831 	 -21.1979 	 82.7735 	 
H 	 3.55096 	 -22.4986 	 82.1759 	 
H 	 3.3501 	 -21.7468 	 83.7637 	 
S 	 10.195 	 -27.692 	 83.8287 	 
C 	 11.4864 	 -27.3651 	 82.6616 	 
C 	 11.1368 	 -26.2651 	 81.9124 	 
C 	 9.97252 	 -25.5462 	 82.3848 	 
C 	 9.33529 	 -26.291 	 83.3839 	 
H 	 11.8312 	 -26.0037 	 81.0819 	 
C 	 9.62121 	 -24.236 	 81.795 	 
H 	 10.5401 	 -23.7013 	 81.6578 	 
H 	 9.02863 	 -23.6903 	 82.54 	 
C 	 8.89698 	 -24.1868 	 80.4196 	 
H 	 8.07262 	 -24.8986 	 80.2571 	 
H 	 9.56896 	 -24.4282 	 79.6183 	 
C 	 8.31372 	 -22.812 	 79.9628 	 
H 	 7.75733 	 -22.832 	 79.0983 	 
H 	 9.04279 	 -21.9911 	 79.8253 	 
H 	 7.60806 	 -22.472 	 80.8017 	 
H 	 5.25812 	 -26.2873 	 86.2825 	 
H 	 12.4045 	 -27.8908 	 82.7645 	 
