34

S 	 -70.3961 	 41.4101 	 125.696 	 
C 	 -70.2377 	 42.4561 	 127.089 	 
C 	 -69.8046 	 41.7923 	 128.208 	 
C 	 -69.6682 	 40.3637 	 128.011 	 
C 	 -69.9053 	 39.9957 	 126.701 	 
H 	 -69.2562 	 39.6399 	 128.732 	 
C 	 -69.6054 	 42.3833 	 129.552 	 
H 	 -69.8381 	 41.7186 	 130.367 	 
H 	 -70.3447 	 43.1446 	 129.499 	 
C 	 -68.2763 	 42.9082 	 129.832 	 
H 	 -67.3823 	 42.1956 	 129.68 	 
H 	 -68.0049 	 43.6899 	 129.061 	 
C 	 -68.098 	 43.693 	 131.163 	 
H 	 -68.4859 	 43.0612 	 131.969 	 
H 	 -67.0405 	 43.8647 	 131.407 	 
H 	 -68.7678 	 44.5351 	 131.262 	 
S 	 -71.1375 	 37.5794 	 126.401 	 
C 	 -70.2887 	 36.2577 	 125.594 	 
C 	 -69.0809 	 36.6347 	 125.067 	 
C 	 -68.8426 	 38.0433 	 125.231 	 
C 	 -69.8294 	 38.6485 	 126.082 	 
H 	 -68.5581 	 35.924 	 124.4 	 
C 	 -67.5085 	 38.7393 	 124.876 	 
H 	 -66.9082 	 38.0538 	 125.519 	 
H 	 -67.3867 	 39.7911 	 125.251 	 
C 	 -67.155 	 38.6049 	 123.45 	 
H 	 -67.9206 	 38.9131 	 122.743 	 
H 	 -67.1362 	 37.5011 	 123.24 	 
C 	 -65.9365 	 39.41 	 123.103 	 
H 	 -65.1346 	 38.8855 	 123.668 	 
H 	 -66.0077 	 40.4558 	 123.392 	 
H 	 -65.4746 	 39.4005 	 122.075 	 
H 	 -70.6009 	 43.4805 	 127.084 	 
H 	 -70.747 	 35.2645 	 125.572 	 
