34

S 	 5.48444 	 -12.2456 	 62.2787 	 
C 	 5.8538 	 -12.0194 	 63.9136 	 
C 	 4.97926 	 -11.2096 	 64.6024 	 
C 	 3.9395 	 -10.7026 	 63.792 	 
C 	 4.14813 	 -11.0955 	 62.4824 	 
H 	 3.18751 	 -9.93907 	 64.0012 	 
C 	 5.16462 	 -10.7845 	 66.1175 	 
H 	 4.5238 	 -9.99088 	 66.3989 	 
H 	 6.10278 	 -10.4043 	 66.321 	 
C 	 4.80785 	 -11.8907 	 67.1441 	 
H 	 5.40887 	 -12.6268 	 66.95 	 
H 	 5.06048 	 -11.7125 	 68.2473 	 
C 	 3.36111 	 -12.4017 	 66.9595 	 
H 	 2.98045 	 -12.9917 	 67.821 	 
H 	 2.62267 	 -11.6397 	 66.7764 	 
H 	 3.36373 	 -13.0421 	 66.0576 	 
S 	 4.06193 	 -10.2866 	 59.7617 	 
C 	 2.60513 	 -10.0732 	 58.9866 	 
C 	 1.54639 	 -10.0262 	 59.8888 	 
C 	 1.93837 	 -10.5941 	 61.1588 	 
C 	 3.2712 	 -10.8001 	 61.3114 	 
H 	 0.514555 	 -9.82806 	 59.5838 	 
C 	 0.906281 	 -10.9825 	 62.2113 	 
H 	 0.0600208 	 -10.3004 	 62.1206 	 
H 	 1.26478 	 -10.9417 	 63.2244 	 
C 	 0.489609 	 -12.4412 	 62.2273 	 
H 	 1.28546 	 -13.0724 	 62.7091 	 
H 	 0.420386 	 -12.8266 	 61.169 	 
C 	 -0.73128 	 -12.7421 	 63.0406 	 
H 	 -0.983372 	 -13.7586 	 62.7398 	 
H 	 -1.65577 	 -12.1517 	 62.7442 	 
H 	 -0.650055 	 -12.5975 	 64.05 	 
H 	 6.49622 	 -12.6284 	 64.5065 	 
H 	 2.49958 	 -9.6458 	 58.0039 	 
