34

S 	 -21.0867 	 -4.25272 	 81.4228 	 
C 	 -20.5117 	 -5.2957 	 80.1725 	 
C 	 -19.8758 	 -6.38558 	 80.7413 	 
C 	 -19.6233 	 -6.30272 	 82.1098 	 
C 	 -20.1821 	 -5.17051 	 82.6526 	 
H 	 -19.1019 	 -7.06385 	 82.6676 	 
C 	 -19.3482 	 -7.54278 	 79.8408 	 
H 	 -19.478 	 -8.53027 	 80.3397 	 
H 	 -18.2838 	 -7.40772 	 79.7916 	 
C 	 -19.9128 	 -7.61575 	 78.4532 	 
H 	 -19.6549 	 -6.66585 	 77.8964 	 
H 	 -19.2432 	 -8.36109 	 78.0098 	 
C 	 -21.4016 	 -7.88302 	 78.3044 	 
H 	 -22.0053 	 -6.97509 	 78.2755 	 
H 	 -21.6496 	 -8.45736 	 77.411 	 
H 	 -21.7862 	 -8.36385 	 79.1753 	 
S 	 -21.882 	 -4.62275 	 84.8371 	 
C 	 -21.3576 	 -4.91093 	 86.4425 	 
C 	 -19.979 	 -4.9793 	 86.4031 	 
C 	 -19.4081 	 -5.04418 	 85.1085 	 
C 	 -20.291 	 -4.85454 	 84.0549 	 
H 	 -19.3798 	 -4.96819 	 87.2868 	 
C 	 -17.8871 	 -5.14177 	 84.925 	 
H 	 -17.5823 	 -4.23343 	 84.3615 	 
H 	 -17.7146 	 -5.96232 	 84.2043 	 
C 	 -16.9616 	 -5.45047 	 86.1026 	 
H 	 -17.1066 	 -6.46127 	 86.4505 	 
H 	 -17.1487 	 -4.76722 	 86.9688 	 
C 	 -15.4546 	 -5.46192 	 85.794 	 
H 	 -15.0938 	 -6.13719 	 84.9544 	 
H 	 -14.905 	 -5.78933 	 86.7031 	 
H 	 -15.0954 	 -4.4651 	 85.562 	 
H 	 -20.8601 	 -5.19943 	 79.1433 	 
H 	 -21.8792 	 -4.68285 	 87.3241 	 
