34

S 	 34.9518 	 26.0114 	 54.9727 	 
C 	 36.1959 	 27.1471 	 54.4921 	 
C 	 37.4458 	 26.6614 	 54.7577 	 
C 	 37.4077 	 25.3083 	 55.2198 	 
C 	 36.151 	 24.6981 	 55.2417 	 
H 	 38.2162 	 24.7321 	 55.5567 	 
C 	 38.6782 	 27.5704 	 54.7734 	 
H 	 38.461 	 28.4569 	 54.1925 	 
H 	 39.5922 	 27.1039 	 54.3482 	 
C 	 39.0063 	 27.9606 	 56.2118 	 
H 	 39.2493 	 27.1164 	 56.8674 	 
H 	 39.9476 	 28.5605 	 56.2689 	 
C 	 37.9003 	 28.8488 	 56.8394 	 
H 	 37.8446 	 29.8513 	 56.3198 	 
H 	 36.9304 	 28.3134 	 56.8842 	 
H 	 38.2221 	 29.2012 	 57.8457 	 
S 	 34.7806 	 22.9506 	 57.0362 	 
C 	 34.7314 	 21.268 	 56.6901 	 
C 	 35.4555 	 20.9662 	 55.5506 	 
C 	 36.188 	 22.1103 	 55.0528 	 
C 	 35.802 	 23.3167 	 55.6598 	 
H 	 35.5523 	 19.9845 	 55.1312 	 
C 	 37.154 	 21.9768 	 53.9488 	 
H 	 38.041 	 21.5018 	 54.3919 	 
H 	 37.4301 	 22.9445 	 53.6089 	 
C 	 36.6566 	 21.1545 	 52.7051 	 
H 	 35.8399 	 21.733 	 52.2437 	 
H 	 36.2832 	 20.1832 	 53.0905 	 
C 	 37.695 	 20.821 	 51.5568 	 
H 	 38.5444 	 20.1311 	 51.8663 	 
H 	 38.0654 	 21.7367 	 51.0546 	 
H 	 37.1762 	 20.2175 	 50.774 	 
H 	 36.0823 	 28.1646 	 54.195 	 
H 	 34.1656 	 20.5947 	 57.3327 	 
