34

S 	 64.3438 	 -6.19801 	 88.3017 	 
C 	 63.1623 	 -4.93438 	 88.7049 	 
C 	 63.3016 	 -3.87365 	 87.878 	 
C 	 64.4689 	 -3.94084 	 87.1234 	 
C 	 65.2227 	 -5.13619 	 87.2018 	 
H 	 64.8192 	 -3.12796 	 86.5436 	 
C 	 62.4683 	 -2.63707 	 87.8997 	 
H 	 62.985 	 -1.82502 	 87.4113 	 
H 	 62.4596 	 -2.36971 	 88.9457 	 
C 	 61.1426 	 -2.84642 	 87.1429 	 
H 	 61.3288 	 -3.08717 	 86.089 	 
H 	 60.6768 	 -3.68832 	 87.6323 	 
C 	 60.2404 	 -1.65778 	 87.332 	 
H 	 59.7656 	 -1.60915 	 88.2759 	 
H 	 60.7947 	 -0.717102 	 87.1843 	 
H 	 59.428 	 -1.79701 	 86.5963 	 
S 	 67.8648 	 -5.75832 	 87.6808 	 
C 	 68.9055 	 -6.0246 	 86.2981 	 
C 	 68.408 	 -5.36601 	 85.2014 	 
C 	 67.0801 	 -4.90379 	 85.3769 	 
C 	 66.5533 	 -5.31224 	 86.5901 	 
H 	 68.9874 	 -5.23341 	 84.3253 	 
C 	 66.3744 	 -4.11265 	 84.3011 	 
H 	 65.3458 	 -4.47985 	 84.3599 	 
H 	 66.7692 	 -4.52006 	 83.3491 	 
C 	 66.381 	 -2.59958 	 84.3324 	 
H 	 65.758 	 -2.20681 	 85.1026 	 
H 	 65.7881 	 -2.19839 	 83.5071 	 
C 	 67.747 	 -1.91788 	 84.3629 	 
H 	 67.7545 	 -0.802692 	 84.347 	 
H 	 68.4709 	 -2.30988 	 83.5758 	 
H 	 68.1277 	 -2.1556 	 85.3714 	 
H 	 62.4772 	 -5.11439 	 89.5367 	 
H 	 69.8969 	 -6.41658 	 86.5634 	 
