34

S 	 64.9549 	 -7.58406 	 87.4677 	 
C 	 63.682 	 -6.42755 	 87.1912 	 
C 	 64.2091 	 -5.19499 	 86.7037 	 
C 	 65.5766 	 -5.31847 	 86.3983 	 
C 	 66.1619 	 -6.48725 	 86.7571 	 
H 	 66.2312 	 -4.51888 	 86.0074 	 
C 	 63.3696 	 -4.04382 	 86.1795 	 
H 	 63.956 	 -3.15142 	 86.566 	 
H 	 62.4498 	 -3.96445 	 86.7573 	 
C 	 63.0646 	 -3.92955 	 84.6851 	 
H 	 63.815 	 -4.06803 	 83.9614 	 
H 	 62.3617 	 -4.69405 	 84.4876 	 
C 	 62.2565 	 -2.66738 	 84.4573 	 
H 	 61.9962 	 -2.49657 	 83.4162 	 
H 	 61.3337 	 -2.88073 	 84.9864 	 
H 	 62.7271 	 -1.84453 	 84.9332 	 
S 	 68.5218 	 -6.61902 	 88.248 	 
C 	 69.9833 	 -7.08079 	 87.3492 	 
C 	 69.8354 	 -6.86726 	 85.9875 	 
C 	 68.5101 	 -6.61793 	 85.6079 	 
C 	 67.5954 	 -6.66757 	 86.697 	 
H 	 70.7207 	 -7.03687 	 85.4997 	 
C 	 68.1308 	 -6.44831 	 84.1134 	 
H 	 67.1029 	 -6.16708 	 84.2694 	 
H 	 68.092 	 -7.41713 	 83.6283 	 
C 	 68.7352 	 -5.32876 	 83.3201 	 
H 	 68.8972 	 -4.38553 	 83.9628 	 
H 	 68.0061 	 -4.96497 	 82.5668 	 
C 	 70.1295 	 -5.48522 	 82.7055 	 
H 	 70.7362 	 -6.23316 	 83.1778 	 
H 	 70.7973 	 -4.6002 	 82.7308 	 
H 	 70.1162 	 -5.75084 	 81.6672 	 
H 	 62.6151 	 -6.5167 	 87.3625 	 
H 	 70.9513 	 -7.08401 	 87.8269 	 
