34

S 	 -54.6261 	 32.7065 	 90.7291 	 
C 	 -56.3692 	 32.5099 	 90.6376 	 
C 	 -56.9319 	 33.4271 	 91.4747 	 
C 	 -55.9364 	 34.1954 	 92.1175 	 
C 	 -54.6925 	 34.0953 	 91.7277 	 
H 	 -56.1887 	 34.8757 	 92.9305 	 
C 	 -58.3114 	 33.3899 	 91.9664 	 
H 	 -58.9831 	 33.1399 	 91.2143 	 
H 	 -58.4657 	 34.396 	 92.2145 	 
C 	 -58.7087 	 32.5125 	 93.1673 	 
H 	 -57.8975 	 32.7227 	 93.8643 	 
H 	 -59.6094 	 32.9255 	 93.5105 	 
C 	 -58.8767 	 31.0262 	 92.8715 	 
H 	 -57.9656 	 30.5249 	 92.6668 	 
H 	 -59.3549 	 30.5996 	 93.7463 	 
H 	 -59.6096 	 30.9085 	 92.0143 	 
S 	 -52.3045 	 33.8565 	 93.1531 	 
C 	 -51.4364 	 35.3201 	 93.5237 	 
C 	 -51.9303 	 36.4184 	 92.8216 	 
C 	 -53.1999 	 36.1226 	 92.2348 	 
C 	 -53.4935 	 34.7528 	 92.2327 	 
H 	 -51.4737 	 37.3933 	 92.9456 	 
C 	 -54.0814 	 37.2794 	 91.7556 	 
H 	 -55.1534 	 36.8614 	 91.5305 	 
H 	 -53.7342 	 37.4407 	 90.7467 	 
C 	 -54.1138 	 38.491 	 92.6649 	 
H 	 -53.2222 	 39.1058 	 92.5562 	 
H 	 -54.13 	 38.1809 	 93.6998 	 
C 	 -55.25 	 39.4712 	 92.324 	 
H 	 -55.3776 	 40.215 	 93.0694 	 
H 	 -56.1818 	 38.931 	 92.2106 	 
H 	 -55.1023 	 40.0631 	 91.3998 	 
H 	 -56.8633 	 31.5857 	 90.4523 	 
H 	 -50.5766 	 35.3362 	 94.2268 	 
