34

S 	 -65.0045 	 48.187 	 123.036 	 
C 	 -65.2353 	 48.5755 	 124.677 	 
C 	 -66.5344 	 48.4106 	 125.03 	 
C 	 -67.3567 	 47.9596 	 124.007 	 
C 	 -66.6929 	 47.6867 	 122.862 	 
H 	 -68.3956 	 47.679 	 124.155 	 
C 	 -66.9782 	 48.8505 	 126.388 	 
H 	 -68.0512 	 49.1209 	 126.327 	 
H 	 -66.5566 	 49.8263 	 126.571 	 
C 	 -66.6691 	 47.918 	 127.549 	 
H 	 -67.1806 	 46.9911 	 127.474 	 
H 	 -65.6114 	 47.5907 	 127.385 	 
C 	 -66.9355 	 48.4699 	 128.915 	 
H 	 -68.0509 	 48.2758 	 129.097 	 
H 	 -66.4808 	 47.8565 	 129.641 	 
H 	 -66.6342 	 49.4925 	 129.05 	 
S 	 -66.1494 	 45.5215 	 121.363 	 
C 	 -67.3137 	 44.9272 	 120.135 	 
C 	 -68.4657 	 45.7124 	 120.165 	 
C 	 -68.4416 	 46.7177 	 121.206 	 
C 	 -67.1918 	 46.9042 	 121.745 	 
H 	 -69.2754 	 45.5167 	 119.488 	 
C 	 -69.6681 	 47.5819 	 121.425 	 
H 	 -69.777 	 48.3213 	 120.604 	 
H 	 -69.5439 	 48.1562 	 122.295 	 
C 	 -71.0453 	 46.8387 	 121.482 	 
H 	 -71.1905 	 46.2315 	 122.317 	 
H 	 -71.1252 	 46.2256 	 120.601 	 
C 	 -72.3258 	 47.7591 	 121.456 	 
H 	 -72.55 	 48.3333 	 122.344 	 
H 	 -73.1965 	 47.0679 	 121.309 	 
H 	 -72.2533 	 48.3205 	 120.508 	 
H 	 -64.4325 	 48.7409 	 125.356 	 
H 	 -67.1362 	 43.9995 	 119.544 	 
