34

S 	 2.59478 	 -18.4143 	 84.6765 	 
C 	 3.2941 	 -19.6582 	 85.7071 	 
C 	 3.40553 	 -19.2777 	 87.0352 	 
C 	 3.07117 	 -17.8886 	 87.1669 	 
C 	 2.70454 	 -17.2755 	 85.9895 	 
H 	 3.10915 	 -17.3044 	 88.0205 	 
C 	 3.62586 	 -20.16 	 88.2226 	 
H 	 2.71977 	 -20.692 	 88.3767 	 
H 	 3.71126 	 -19.4905 	 89.089 	 
C 	 4.80345 	 -21.2012 	 88.1645 	 
H 	 4.63594 	 -21.9296 	 87.3209 	 
H 	 5.75713 	 -20.718 	 87.9699 	 
C 	 4.98306 	 -22.0217 	 89.3994 	 
H 	 5.80596 	 -22.6548 	 89.4026 	 
H 	 5.132 	 -21.3398 	 90.2775 	 
H 	 3.99158 	 -22.5517 	 89.5879 	 
S 	 0.642719 	 -15.6266 	 85.4165 	 
C 	 1.01396 	 -13.8505 	 85.4604 	 
C 	 2.3546 	 -13.523 	 85.8376 	 
C 	 3.07403 	 -14.7308 	 86.0857 	 
C 	 2.28605 	 -15.8892 	 85.8767 	 
H 	 2.78046 	 -12.5122 	 85.8251 	 
C 	 4.54299 	 -14.7429 	 86.4014 	 
H 	 4.56721 	 -15.2781 	 87.3445 	 
H 	 4.85283 	 -13.7284 	 86.4397 	 
C 	 5.43727 	 -15.4933 	 85.4274 	 
H 	 5.5703 	 -14.8669 	 84.5241 	 
H 	 5.05749 	 -16.5446 	 85.1147 	 
C 	 6.85259 	 -15.7668 	 85.8451 	 
H 	 7.22619 	 -14.827 	 86.3808 	 
H 	 7.50405 	 -15.9029 	 84.957 	 
H 	 6.85169 	 -16.5793 	 86.5172 	 
H 	 3.31758 	 -20.7614 	 85.6797 	 
H 	 0.317956 	 -13.1044 	 85.0438 	 
