34

S 	 40.106 	 7.94099 	 85.0337 	 
C 	 40.0687 	 7.82253 	 83.3467 	 
C 	 39.6037 	 6.67209 	 82.8115 	 
C 	 39.2286 	 5.79399 	 83.8201 	 
C 	 39.4019 	 6.35891 	 85.05 	 
H 	 39.0062 	 4.73502 	 83.691 	 
C 	 39.5231 	 6.47177 	 81.3068 	 
H 	 38.844 	 7.23796 	 80.9646 	 
H 	 39.0844 	 5.50218 	 81.0934 	 
C 	 40.841 	 6.43608 	 80.5444 	 
H 	 41.3458 	 5.54784 	 80.8073 	 
H 	 40.6571 	 6.27128 	 79.4812 	 
C 	 41.834 	 7.57042 	 80.6699 	 
H 	 42.4855 	 7.70031 	 81.5582 	 
H 	 42.5959 	 7.52721 	 79.8977 	 
H 	 41.2558 	 8.51276 	 80.4198 	 
S 	 38.1454 	 6.45131 	 87.5218 	 
C 	 38.2321 	 5.17612 	 88.6141 	 
C 	 39.33 	 4.40262 	 88.2584 	 
C 	 39.933 	 4.7002 	 87.0117 	 
C 	 39.2667 	 5.74283 	 86.3529 	 
H 	 39.6055 	 3.52203 	 88.8476 	 
C 	 41.1739 	 4.03506 	 86.4391 	 
H 	 40.8815 	 3.69707 	 85.4507 	 
H 	 41.3335 	 3.10119 	 86.9988 	 
C 	 42.4783 	 4.84306 	 86.3339 	 
H 	 42.8743 	 5.04165 	 87.3615 	 
H 	 42.1396 	 5.80796 	 86.0464 	 
C 	 43.4524 	 4.24356 	 85.3548 	 
H 	 43.0495 	 4.2051 	 84.3645 	 
H 	 43.7595 	 3.23767 	 85.6749 	 
H 	 44.3496 	 4.79821 	 85.1692 	 
H 	 40.4179 	 8.61077 	 82.7474 	 
H 	 37.6061 	 4.94173 	 89.474 	 
