34

S 	 -81.5624 	 47.0535 	 127.878 	 
C 	 -83.0119 	 47.1429 	 126.935 	 
C 	 -83.9921 	 47.8424 	 127.65 	 
C 	 -83.5391 	 48.4287 	 128.877 	 
C 	 -82.2314 	 48.1327 	 129.123 	 
H 	 -84.1757 	 48.9538 	 129.489 	 
C 	 -85.3422 	 48.1869 	 127.171 	 
H 	 -85.8915 	 48.5709 	 128.052 	 
H 	 -85.7784 	 47.2187 	 126.872 	 
C 	 -85.4619 	 49.2978 	 126.115 	 
H 	 -86.4276 	 49.783 	 126.341 	 
H 	 -84.8484 	 50.145 	 126.333 	 
C 	 -85.3503 	 48.8801 	 124.614 	 
H 	 -84.2932 	 48.6223 	 124.378 	 
H 	 -85.8155 	 48.0333 	 124.242 	 
H 	 -85.4138 	 49.6745 	 123.835 	 
S 	 -80.0047 	 49.665 	 129.91 	 
C 	 -79.7046 	 49.9665 	 131.652 	 
C 	 -80.4986 	 49.1318 	 132.399 	 
C 	 -81.5586 	 48.4946 	 131.672 	 
C 	 -81.4091 	 48.6913 	 130.259 	 
H 	 -80.1989 	 49.1091 	 133.411 	 
C 	 -82.474 	 47.563 	 132.388 	 
H 	 -83.4747 	 47.9733 	 132.308 	 
H 	 -82.2005 	 47.7123 	 133.4 	 
C 	 -82.4905 	 46.0117 	 132.1 	 
H 	 -81.4178 	 45.72 	 132.1 	 
H 	 -82.943 	 46.0086 	 131.088 	 
C 	 -83.3987 	 45.2764 	 133.124 	 
H 	 -83.5968 	 44.2425 	 132.705 	 
H 	 -84.4853 	 45.7436 	 133.252 	 
H 	 -82.9024 	 45.2627 	 134.071 	 
H 	 -83.0651 	 46.7245 	 125.921 	 
H 	 -78.8711 	 50.5109 	 132.035 	 
