34

S 	 -9.51348 	 9.65633 	 84.779 	 
C 	 -9.59992 	 8.09885 	 85.5822 	 
C 	 -10.4062 	 7.19573 	 84.9054 	 
C 	 -11.119 	 7.93222 	 83.9164 	 
C 	 -10.698 	 9.1971 	 83.5523 	 
H 	 -11.9865 	 7.47529 	 83.3903 	 
C 	 -10.7027 	 5.81738 	 85.4371 	 
H 	 -9.97983 	 5.62314 	 86.2121 	 
H 	 -10.6729 	 5.0011 	 84.7576 	 
C 	 -12.1193 	 5.69843 	 86.036 	 
H 	 -12.1301 	 6.50658 	 86.8454 	 
H 	 -12.8667 	 5.99779 	 85.269 	 
C 	 -12.6068 	 4.40656 	 86.6689 	 
H 	 -13.0172 	 3.73781 	 85.8929 	 
H 	 -11.7202 	 3.87124 	 87.0255 	 
H 	 -13.4115 	 4.47867 	 87.4672 	 
S 	 -11.6729 	 11.6476 	 83.0644 	 
C 	 -12.2274 	 12.0683 	 81.4951 	 
C 	 -12.2134 	 11.0185 	 80.6372 	 
C 	 -11.6735 	 9.84307 	 81.1994 	 
C 	 -11.2744 	 10.0764 	 82.5 	 
H 	 -12.6916 	 11.1595 	 79.7403 	 
C 	 -11.6959 	 8.47279 	 80.4898 	 
H 	 -12.6754 	 8.02813 	 80.5935 	 
H 	 -11.1498 	 7.71029 	 81.0477 	 
C 	 -11.0492 	 8.48557 	 79.0575 	 
H 	 -11.4455 	 9.25883 	 78.4871 	 
H 	 -11.2296 	 7.54417 	 78.5408 	 
C 	 -9.47835 	 8.7531 	 79.0216 	 
H 	 -9.24792 	 8.86804 	 77.8849 	 
H 	 -9.00313 	 8.04069 	 79.5454 	 
H 	 -9.22652 	 9.6942 	 79.6211 	 
H 	 -8.88496 	 7.84914 	 86.3164 	 
H 	 -12.5685 	 13.0855 	 81.2874 	 
