34

S 	 6.46355 	 14.7258 	 87.0566 	 
C 	 4.78719 	 14.9961 	 86.9676 	 
C 	 4.05179 	 13.886 	 87.3421 	 
C 	 4.92661 	 12.8341 	 87.7277 	 
C 	 6.22759 	 13.1002 	 87.4828 	 
H 	 4.73443 	 11.7988 	 88.025 	 
C 	 2.56514 	 13.498 	 87.1663 	 
H 	 2.3202 	 14.3258 	 86.5836 	 
H 	 1.99825 	 13.6786 	 88.0484 	 
C 	 2.16113 	 12.1855 	 86.4277 	 
H 	 2.94758 	 11.9287 	 85.7692 	 
H 	 2.23591 	 11.4523 	 87.282 	 
C 	 0.725876 	 12.2073 	 85.8984 	 
H 	 0.0564593 	 12.4523 	 86.7243 	 
H 	 0.656868 	 12.9618 	 85.1211 	 
H 	 0.422776 	 11.246 	 85.4755 	 
S 	 8.51314 	 12.439 	 88.79 	 
C 	 9.1384 	 10.8197 	 88.6892 	 
C 	 8.57688 	 10.1912 	 87.6379 	 
C 	 7.41534 	 10.8457 	 87.107 	 
C 	 7.30104 	 12.14 	 87.6456 	 
H 	 8.89928 	 9.13885 	 87.4849 	 
C 	 6.45447 	 10.0918 	 86.2099 	 
H 	 5.46468 	 10.4986 	 86.0848 	 
H 	 6.47337 	 9.16936 	 86.7186 	 
C 	 7.05109 	 9.83534 	 84.8383 	 
H 	 7.91184 	 9.18022 	 85.0739 	 
H 	 7.3801 	 10.7155 	 84.2813 	 
C 	 6.13515 	 9.09423 	 83.8881 	 
H 	 5.74428 	 8.2008 	 84.3345 	 
H 	 6.56976 	 8.82767 	 82.8973 	 
H 	 5.25008 	 9.64791 	 83.6204 	 
H 	 4.43017 	 15.9394 	 86.452 	 
H 	 9.93943 	 10.4395 	 89.2976 	 
