34

S 	 -50.6079 	 8.8011 	 92.7907 	 
C 	 -50.6029 	 10.4275 	 93.2662 	 
C 	 -50.2983 	 11.2962 	 92.2332 	 
C 	 -49.9962 	 10.5465 	 91.0724 	 
C 	 -50.059 	 9.17826 	 91.2331 	 
H 	 -49.7512 	 10.8776 	 90.1117 	 
C 	 -50.1379 	 12.781 	 92.3849 	 
H 	 -51.0635 	 13.1967 	 92.6999 	 
H 	 -49.8985 	 13.1452 	 91.3586 	 
C 	 -48.9289 	 13.1758 	 93.3251 	 
H 	 -48.76 	 14.2931 	 93.1569 	 
H 	 -49.1299 	 13.1738 	 94.4095 	 
C 	 -47.5987 	 12.4365 	 93.0848 	 
H 	 -47.3875 	 11.6267 	 93.8171 	 
H 	 -47.4595 	 11.9417 	 92.123 	 
H 	 -46.7039 	 13.0742 	 93.2827 	 
S 	 -49.2124 	 6.63064 	 91.0466 	 
C 	 -49.2858 	 5.8266 	 89.4612 	 
C 	 -49.6637 	 6.67588 	 88.4752 	 
C 	 -49.9073 	 7.98376 	 88.9238 	 
C 	 -49.749 	 8.0931 	 90.3261 	 
H 	 -49.6584 	 6.23159 	 87.4949 	 
C 	 -50.4246 	 9.03197 	 87.9221 	 
H 	 -50.0352 	 8.8001 	 86.8909 	 
H 	 -49.7448 	 9.84406 	 88.1391 	 
C 	 -51.916 	 9.34051 	 87.9517 	 
H 	 -52.2832 	 9.62271 	 88.9606 	 
H 	 -52.3939 	 8.47126 	 87.582 	 
C 	 -52.3391 	 10.4259 	 86.9775 	 
H 	 -51.981 	 10.3798 	 85.9815 	 
H 	 -52.0817 	 11.3849 	 87.4576 	 
H 	 -53.4097 	 10.4206 	 86.9791 	 
H 	 -50.7274 	 10.749 	 94.2374 	 
H 	 -49.2845 	 4.80573 	 89.2034 	 
