34

S 	 -11.4138 	 47.6716 	 40.0172 	 
C 	 -11.7616 	 47.2014 	 38.3746 	 
C 	 -10.6806 	 46.5921 	 37.7306 	 
C 	 -9.5035 	 46.65 	 38.5398 	 
C 	 -9.74522 	 47.2238 	 39.7758 	 
H 	 -8.4853 	 46.3605 	 38.3208 	 
C 	 -10.7962 	 45.8055 	 36.4295 	 
H 	 -9.7191 	 45.6406 	 36.1609 	 
H 	 -11.1362 	 46.4361 	 35.61 	 
C 	 -11.674 	 44.546 	 36.6246 	 
H 	 -11.2387 	 43.898 	 37.3062 	 
H 	 -12.65 	 44.739 	 37.0065 	 
C 	 -11.8081 	 43.8435 	 35.2845 	 
H 	 -10.9362 	 43.1212 	 35.201 	 
H 	 -12.8195 	 43.2595 	 35.1287 	 
H 	 -11.7269 	 44.4717 	 34.4643 	 
S 	 -9.20712 	 46.0896 	 42.2469 	 
C 	 -7.63971 	 46.2395 	 42.9261 	 
C 	 -6.77183 	 47.0732 	 42.2364 	 
C 	 -7.39719 	 47.5216 	 41.055 	 
C 	 -8.773 	 47.1877 	 40.8702 	 
H 	 -5.77056 	 47.1703 	 42.5547 	 
C 	 -6.615 	 48.2483 	 39.952 	 
H 	 -6.05151 	 49.008 	 40.4641 	 
H 	 -7.36308 	 48.6414 	 39.2285 	 
C 	 -5.71364 	 47.3404 	 39.0579 	 
H 	 -6.24589 	 46.5032 	 38.7343 	 
H 	 -5.02803 	 47.0177 	 39.8039 	 
C 	 -4.94073 	 48.0978 	 38.0351 	 
H 	 -4.19665 	 48.656 	 38.5891 	 
H 	 -5.55516 	 48.7071 	 37.3832 	 
H 	 -4.3828 	 47.4117 	 37.3672 	 
H 	 -12.7711 	 47.2735 	 37.9279 	 
H 	 -7.23327 	 45.656 	 43.7905 	 
