34

S 	 39.8549 	 13.3584 	 85.8115 	 
C 	 40.7915 	 14.831 	 86.2301 	 
C 	 42.0494 	 14.4126 	 86.642 	 
C 	 42.2807 	 12.9682 	 86.6886 	 
C 	 41.1724 	 12.2695 	 86.3357 	 
H 	 43.1571 	 12.4682 	 87.0227 	 
C 	 43.1216 	 15.3826 	 87.099 	 
H 	 43.6912 	 15.0868 	 87.921 	 
H 	 42.6588 	 16.3071 	 87.4927 	 
C 	 44.0886 	 15.9068 	 86.035 	 
H 	 44.6937 	 16.6504 	 86.6611 	 
H 	 44.7552 	 15.0919 	 85.6541 	 
C 	 43.3941 	 16.6361 	 84.877 	 
H 	 42.8644 	 15.8394 	 84.3327 	 
H 	 42.6892 	 17.3625 	 85.2526 	 
H 	 44.0121 	 17.2537 	 84.2257 	 
S 	 40.2504 	 10.172 	 85.0185 	 
C 	 40.2452 	 8.51743 	 85.6838 	 
C 	 40.7332 	 8.57847 	 86.9643 	 
C 	 41.3386 	 9.86035 	 87.388 	 
C 	 40.9475 	 10.8456 	 86.4658 	 
H 	 40.9147 	 7.58966 	 87.5 	 
C 	 42.1519 	 10.0781 	 88.678 	 
H 	 41.5359 	 9.58816 	 89.4462 	 
H 	 42.1808 	 11.1436 	 88.9544 	 
C 	 43.6024 	 9.45625 	 88.6722 	 
H 	 44.2199 	 9.97671 	 88.0027 	 
H 	 43.4365 	 8.52569 	 88.1436 	 
C 	 44.2204 	 9.24682 	 90.0593 	 
H 	 45.1685 	 8.75516 	 90.0047 	 
H 	 43.6348 	 8.68065 	 90.6767 	 
H 	 44.4826 	 10.2488 	 90.4871 	 
H 	 40.4605 	 15.879 	 86.2381 	 
H 	 40.0662 	 7.6045 	 85.169 	 
