34

S 	 16.4197 	 18.5887 	 41.8364 	 
C 	 16.7411 	 17.1487 	 40.9893 	 
C 	 15.7407 	 16.9023 	 40.0668 	 
C 	 14.7795 	 17.9743 	 40.0043 	 
C 	 14.95 	 18.974 	 40.9508 	 
H 	 14.0211 	 17.9913 	 39.2325 	 
C 	 15.7107 	 15.7207 	 39.2037 	 
H 	 14.733 	 15.7139 	 38.6628 	 
H 	 15.8283 	 14.7694 	 39.6919 	 
C 	 16.7812 	 15.6358 	 38.154 	 
H 	 16.9766 	 16.6838 	 37.7977 	 
H 	 17.7218 	 15.3064 	 38.6141 	 
C 	 16.4769 	 14.6483 	 36.9913 	 
H 	 17.3948 	 14.0466 	 36.7284 	 
H 	 15.649 	 13.9532 	 37.2714 	 
H 	 16.1074 	 15.1149 	 36.1109 	 
S 	 13.5339 	 21.0305 	 39.9059 	 
C 	 12.5984 	 22.009 	 40.9701 	 
C 	 12.769 	 21.6095 	 42.2644 	 
C 	 13.6244 	 20.5776 	 42.4572 	 
C 	 14.0882 	 20.1029 	 41.2368 	 
H 	 12.1709 	 22.0177 	 43.0406 	 
C 	 13.8721 	 19.8701 	 43.7992 	 
H 	 13.7625 	 20.5912 	 44.5631 	 
H 	 14.8934 	 19.5528 	 43.9275 	 
C 	 12.8381 	 18.7132 	 44.1238 	 
H 	 11.8158 	 19.1005 	 43.9282 	 
H 	 13.0101 	 18.4406 	 45.1892 	 
C 	 13.0712 	 17.3757 	 43.4424 	 
H 	 12.2265 	 16.6393 	 43.4656 	 
H 	 13.8597 	 16.8025 	 43.8257 	 
H 	 13.3985 	 17.6022 	 42.3795 	 
H 	 17.6255 	 16.6346 	 41.1155 	 
H 	 11.8599 	 22.7916 	 40.755 	 
