34

S 	 -38.882 	 40.4945 	 95.1775 	 
C 	 -38.1533 	 41.1201 	 96.6199 	 
C 	 -36.9189 	 41.734 	 96.3051 	 
C 	 -36.5119 	 41.5021 	 94.9948 	 
C 	 -37.4661 	 40.8622 	 94.1806 	 
H 	 -35.5381 	 41.7006 	 94.5214 	 
C 	 -36.1737 	 42.4221 	 97.4297 	 
H 	 -35.3335 	 41.8034 	 97.6592 	 
H 	 -36.7072 	 42.3369 	 98.4511 	 
C 	 -35.731 	 43.8613 	 97.3171 	 
H 	 -34.8841 	 43.7947 	 96.5633 	 
H 	 -36.5188 	 44.3724 	 96.7147 	 
C 	 -35.4327 	 44.5027 	 98.6083 	 
H 	 -34.3665 	 44.2555 	 98.9847 	 
H 	 -35.6486 	 45.5421 	 98.6519 	 
H 	 -36.1429 	 44.2039 	 99.3427 	 
S 	 -37.1897 	 41.5486 	 91.5303 	 
C 	 -36.8239 	 40.3146 	 90.3913 	 
C 	 -36.9056 	 39.0412 	 90.9758 	 
C 	 -37.1981 	 39.0568 	 92.3847 	 
C 	 -37.341 	 40.3697 	 92.8487 	 
H 	 -36.6669 	 38.1324 	 90.4486 	 
C 	 -37.3435 	 37.8245 	 93.2733 	 
H 	 -38.3715 	 37.6203 	 93.3949 	 
H 	 -36.9676 	 38.0008 	 94.2771 	 
C 	 -36.497 	 36.6303 	 92.7705 	 
H 	 -35.398 	 36.892 	 92.6624 	 
H 	 -36.7784 	 36.3521 	 91.7138 	 
C 	 -36.5492 	 35.4036 	 93.7552 	 
H 	 -35.6758 	 34.7457 	 93.608 	 
H 	 -37.4843 	 34.8998 	 93.6907 	 
H 	 -36.548 	 35.6809 	 94.779 	 
H 	 -38.7309 	 41.0937 	 97.582 	 
H 	 -36.7284 	 40.4427 	 89.3254 	 
