34

S 	 18.2442 	 7.86679 	 88.0735 	 
C 	 19.4279 	 7.18099 	 87.0409 	 
C 	 19.2844 	 7.58945 	 85.682 	 
C 	 18.2485 	 8.54888 	 85.5897 	 
C 	 17.5807 	 8.85423 	 86.8016 	 
H 	 17.9869 	 9.09844 	 84.7005 	 
C 	 20.0417 	 7.17908 	 84.4224 	 
H 	 19.3149 	 7.02442 	 83.6083 	 
H 	 20.3082 	 6.12036 	 84.5635 	 
C 	 21.1724 	 8.11297 	 83.9985 	 
H 	 21.7941 	 8.2304 	 84.844 	 
H 	 21.722 	 7.77812 	 83.1449 	 
C 	 20.6951 	 9.55757 	 83.6679 	 
H 	 21.4738 	 10.0983 	 83.1966 	 
H 	 19.8316 	 9.6437 	 82.9916 	 
H 	 20.4274 	 10.1578 	 84.5284 	 
S 	 16.9683 	 11.4136 	 86.9862 	 
C 	 15.2993 	 11.9031 	 87.437 	 
C 	 14.499 	 10.8517 	 87.3259 	 
C 	 15.1756 	 9.5984 	 87.0343 	 
C 	 16.5372 	 9.76469 	 86.9554 	 
H 	 13.3906 	 10.8564 	 87.5876 	 
C 	 14.4505 	 8.31753 	 87.023 	 
H 	 15.0812 	 7.52705 	 86.646 	 
H 	 13.666 	 8.42672 	 86.3422 	 
C 	 13.7932 	 7.97845 	 88.3242 	 
H 	 12.9663 	 8.72372 	 88.4995 	 
H 	 14.4671 	 8.13152 	 89.1374 	 
C 	 13.3079 	 6.54063 	 88.4646 	 
H 	 12.3315 	 6.37594 	 87.9107 	 
H 	 13.0101 	 6.34114 	 89.4881 	 
H 	 14.0282 	 5.82661 	 88.0552 	 
H 	 20.2268 	 6.54922 	 87.3055 	 
H 	 14.9474 	 12.9325 	 87.5161 	 
