34

S 	 -70.9968 	 40.3166 	 120.859 	 
C 	 -72.4717 	 41.2343 	 120.569 	 
C 	 -73.5065 	 40.2622 	 120.416 	 
C 	 -73.075 	 38.8857 	 120.567 	 
C 	 -71.7637 	 38.706 	 120.867 	 
H 	 -73.8064 	 38.1044 	 120.504 	 
C 	 -74.8844 	 40.6455 	 120.042 	 
H 	 -75.3951 	 41.0311 	 120.889 	 
H 	 -75.378 	 39.7103 	 119.846 	 
C 	 -75.1357 	 41.5572 	 118.875 	 
H 	 -74.6206 	 42.4615 	 119.146 	 
H 	 -74.5937 	 41.173 	 118.07 	 
C 	 -76.5978 	 41.8159 	 118.577 	 
H 	 -76.7916 	 42.3551 	 117.656 	 
H 	 -77.2453 	 40.9924 	 118.613 	 
H 	 -77.0055 	 42.4547 	 119.406 	 
S 	 -69.3751 	 37.5942 	 120.066 	 
C 	 -69.1801 	 35.8561 	 119.919 	 
C 	 -70.2654 	 35.2335 	 120.422 	 
C 	 -71.1914 	 36.1332 	 121.024 	 
C 	 -70.9495 	 37.4587 	 120.811 	 
H 	 -70.3269 	 34.2028 	 120.42 	 
C 	 -72.3646 	 35.4985 	 121.702 	 
H 	 -73.042 	 35.2529 	 120.893 	 
H 	 -72.7722 	 36.2858 	 122.365 	 
C 	 -72.0457 	 34.3115 	 122.654 	 
H 	 -71.3678 	 34.6965 	 123.386 	 
H 	 -71.5121 	 33.5215 	 122.215 	 
C 	 -73.2661 	 33.8009 	 123.332 	 
H 	 -72.979 	 33.0633 	 124.142 	 
H 	 -73.8837 	 33.4005 	 122.609 	 
H 	 -73.7523 	 34.6745 	 123.669 	 
H 	 -72.611 	 42.2161 	 120.186 	 
H 	 -68.4098 	 35.3502 	 119.35 	 
