34

S 	 -77.2653 	 52.6905 	 137.888 	 
C 	 -76.2629 	 53.8924 	 138.669 	 
C 	 -76.5689 	 55.1869 	 138.203 	 
C 	 -77.677 	 55.1661 	 137.312 	 
C 	 -78.1602 	 53.8851 	 137.046 	 
H 	 -78.0731 	 56.0686 	 136.89 	 
C 	 -76.0662 	 56.4751 	 138.771 	 
H 	 -75.9 	 56.2262 	 139.817 	 
H 	 -76.905 	 57.2 	 138.699 	 
C 	 -74.7555 	 56.9601 	 138.17 	 
H 	 -74.8991 	 57.2301 	 137.124 	 
H 	 -74.4983 	 57.8998 	 138.761 	 
C 	 -73.5218 	 56.1039 	 138.357 	 
H 	 -73.287 	 56.0317 	 139.426 	 
H 	 -73.6873 	 55.1821 	 137.877 	 
H 	 -72.6468 	 56.4579 	 137.747 	 
S 	 -79.5965 	 54.7552 	 134.789 	 
C 	 -81.0644 	 53.9685 	 134.388 	 
C 	 -81.302 	 52.8569 	 135.174 	 
C 	 -80.3363 	 52.772 	 136.324 	 
C 	 -79.2992 	 53.6588 	 136.156 	 
H 	 -82.0637 	 52.1552 	 134.825 	 
C 	 -80.4567 	 51.6222 	 137.313 	 
H 	 -81.5053 	 51.5235 	 137.739 	 
H 	 -79.9295 	 51.9424 	 138.214 	 
C 	 -80.0022 	 50.2117 	 137.009 	 
H 	 -79.009 	 50.3235 	 136.586 	 
H 	 -80.6506 	 49.934 	 136.16 	 
C 	 -79.8966 	 49.2016 	 138.144 	 
H 	 -79.4821 	 49.6435 	 139.044 	 
H 	 -79.3278 	 48.3092 	 138.093 	 
H 	 -80.9035 	 48.9134 	 138.434 	 
H 	 -75.4808 	 53.6257 	 139.333 	 
H 	 -81.5732 	 54.2522 	 133.433 	 
