34

S 	 -2.88327 	 -13.4897 	 85.252 	 
C 	 -4.18056 	 -14.5934 	 84.9726 	 
C 	 -3.74773 	 -15.7647 	 84.3863 	 
C 	 -2.39013 	 -15.6786 	 83.9311 	 
C 	 -1.76782 	 -14.5391 	 84.3454 	 
H 	 -1.74467 	 -16.4006 	 83.4713 	 
C 	 -4.51621 	 -17.0107 	 84.1839 	 
H 	 -4.82837 	 -17.3338 	 85.2011 	 
H 	 -3.94668 	 -17.7655 	 83.6989 	 
C 	 -5.74322 	 -16.8637 	 83.2719 	 
H 	 -6.03509 	 -17.8979 	 83.191 	 
H 	 -6.5265 	 -16.3183 	 83.856 	 
C 	 -5.493 	 -16.2476 	 81.8781 	 
H 	 -6.39311 	 -16.5523 	 81.3418 	 
H 	 -5.38092 	 -15.1268 	 81.8965 	 
H 	 -4.68461 	 -16.6881 	 81.2919 	 
S 	 0.529497 	 -14.0856 	 85.5204 	 
C 	 1.9357 	 -13.9818 	 84.6209 	 
C 	 1.81108 	 -14.0491 	 83.2747 	 
C 	 0.414569 	 -14.1779 	 82.9365 	 
C 	 -0.413141 	 -14.223 	 84.0579 	 
H 	 2.63303 	 -13.9808 	 82.5007 	 
C 	 -0.0700438 	 -14.1011 	 81.4587 	 
H 	 0.256463 	 -13.1989 	 80.91 	 
H 	 -1.14523 	 -14.2259 	 81.4542 	 
C 	 0.398501 	 -15.2751 	 80.5659 	 
H 	 1.45467 	 -15.4931 	 80.8397 	 
H 	 0.373401 	 -14.9472 	 79.4834 	 
C 	 -0.39798 	 -16.5629 	 80.7669 	 
H 	 -0.427831 	 -16.9295 	 81.8441 	 
H 	 -0.0209745 	 -17.3874 	 80.0622 	 
H 	 -1.4416 	 -16.4533 	 80.4763 	 
H 	 -5.08249 	 -14.5994 	 85.5448 	 
H 	 2.91141 	 -13.9707 	 85.1732 	 
