34

S 	 -39.1943 	 52.1679 	 116.063 	 
C 	 -40.6735 	 53.0572 	 116.301 	 
C 	 -41.5877 	 52.82 	 115.286 	 
C 	 -41.0828 	 51.9539 	 114.245 	 
C 	 -39.8039 	 51.4926 	 114.535 	 
H 	 -41.5777 	 51.6274 	 113.339 	 
C 	 -43.0258 	 53.3877 	 115.414 	 
H 	 -43.1424 	 53.6624 	 116.481 	 
H 	 -43.746 	 52.6902 	 114.988 	 
C 	 -43.1325 	 54.7196 	 114.644 	 
H 	 -42.8358 	 54.6931 	 113.651 	 
H 	 -44.2134 	 55.0052 	 114.753 	 
C 	 -42.2903 	 55.8757 	 115.135 	 
H 	 -41.2199 	 55.6648 	 114.971 	 
H 	 -42.615 	 56.7571 	 114.543 	 
H 	 -42.4195 	 56.0928 	 116.187 	 
S 	 -38.9129 	 48.9198 	 114.259 	 
C 	 -37.9501 	 48.3964 	 112.906 	 
C 	 -37.7239 	 49.4383 	 112.047 	 
C 	 -38.375 	 50.686 	 112.444 	 
C 	 -38.9871 	 50.5792 	 113.689 	 
H 	 -37.1973 	 49.1559 	 111.141 	 
C 	 -38.3794 	 51.9332 	 111.51 	 
H 	 -37.5113 	 51.896 	 110.838 	 
H 	 -38.1583 	 52.8254 	 112.191 	 
C 	 -39.6916 	 52.0627 	 110.739 	 
H 	 -40.4992 	 52.2871 	 111.417 	 
H 	 -40.025 	 51.146 	 110.262 	 
C 	 -39.6333 	 53.2211 	 109.726 	 
H 	 -38.8219 	 53.0426 	 108.914 	 
H 	 -39.3533 	 54.2537 	 110.157 	 
H 	 -40.63 	 53.2358 	 109.306 	 
H 	 -40.9365 	 53.6087 	 117.206 	 
H 	 -37.915 	 47.3593 	 112.621 	 
