34

S 	 54.4083 	 0.0652026 	 87.8476 	 
C 	 55.0954 	 -0.809261 	 89.231 	 
C 	 54.6548 	 -0.332377 	 90.4345 	 
C 	 53.6539 	 0.704371 	 90.3057 	 
C 	 53.4669 	 1.03104 	 88.9983 	 
H 	 53.151 	 1.035 	 91.1944 	 
C 	 55.129 	 -0.781713 	 91.7996 	 
H 	 55.4246 	 -1.87892 	 91.6355 	 
H 	 54.2936 	 -0.803639 	 92.4547 	 
C 	 56.2065 	 0.0700532 	 92.4613 	 
H 	 57.0757 	 0.030536 	 91.8344 	 
H 	 55.9242 	 1.1219 	 92.4775 	 
C 	 56.5042 	 -0.412178 	 93.9233 	 
H 	 55.5433 	 -0.315037 	 94.5213 	 
H 	 56.7295 	 -1.46979 	 93.9086 	 
H 	 57.1804 	 0.314655 	 94.2346 	 
S 	 51.5979 	 1.76962 	 87.2338 	 
C 	 50.5199 	 3.08219 	 87.5874 	 
C 	 50.9449 	 3.86209 	 88.6292 	 
C 	 52.1449 	 3.35114 	 89.2253 	 
C 	 52.5922 	 2.13027 	 88.6381 	 
H 	 50.3323 	 4.68902 	 88.9507 	 
C 	 52.8168 	 4.01283 	 90.4354 	 
H 	 53.8348 	 3.69698 	 90.4991 	 
H 	 52.2315 	 3.59426 	 91.2395 	 
C 	 52.8679 	 5.52905 	 90.6097 	 
H 	 51.933 	 5.83102 	 91.0326 	 
H 	 53.0306 	 6.09332 	 89.7232 	 
C 	 53.8192 	 5.91839 	 91.8247 	 
H 	 54.0747 	 6.97701 	 91.9346 	 
H 	 54.7785 	 5.377 	 91.7525 	 
H 	 53.3987 	 5.69964 	 92.7492 	 
H 	 55.6267 	 -1.71864 	 89.1465 	 
H 	 49.7088 	 3.30773 	 86.9077 	 
