34

S 	 -95.4367 	 49.0042 	 121.943 	 
C 	 -93.9695 	 48.0967 	 122.451 	 
C 	 -94.2936 	 47.0683 	 123.33 	 
C 	 -95.6785 	 47.0871 	 123.569 	 
C 	 -96.4635 	 47.9884 	 122.925 	 
H 	 -96.2206 	 46.3901 	 124.116 	 
C 	 -93.3614 	 45.9635 	 123.749 	 
H 	 -93.6326 	 45.6296 	 124.752 	 
H 	 -92.4162 	 46.3615 	 123.928 	 
C 	 -93.0745 	 44.825 	 122.799 	 
H 	 -92.7271 	 45.2712 	 121.868 	 
H 	 -92.2344 	 44.2028 	 123.183 	 
C 	 -94.1631 	 43.8127 	 122.491 	 
H 	 -95.0331 	 44.3157 	 122.162 	 
H 	 -93.9225 	 43.1017 	 121.673 	 
H 	 -94.3679 	 43.1624 	 123.352 	 
S 	 -98.3996 	 49.6253 	 123.941 	 
C 	 -100.121 	 49.2685 	 123.755 	 
C 	 -100.273 	 48.0232 	 123.108 	 
C 	 -99.0096 	 47.3697 	 122.852 	 
C 	 -97.9111 	 48.2001 	 123.119 	 
H 	 -101.217 	 47.6054 	 122.784 	 
C 	 -99.0452 	 45.9877 	 122.285 	 
H 	 -100.037 	 45.5198 	 122.149 	 
H 	 -98.4576 	 45.2694 	 122.851 	 
C 	 -98.3103 	 45.8285 	 120.927 	 
H 	 -97.2321 	 46.0719 	 120.98 	 
H 	 -98.6576 	 46.4792 	 120.11 	 
C 	 -98.4754 	 44.4556 	 120.322 	 
H 	 -97.8813 	 44.3977 	 119.413 	 
H 	 -99.535 	 44.4411 	 120.006 	 
H 	 -98.1723 	 43.5932 	 120.932 	 
H 	 -93.1067 	 48.1522 	 121.89 	 
H 	 -100.912 	 49.888 	 124.105 	 
