34

S 	 -45.8509 	 37.422 	 82.5056 	 
C 	 -45.0571 	 38.8438 	 81.9129 	 
C 	 -44.0725 	 38.5022 	 80.9937 	 
C 	 -43.9827 	 37.0942 	 80.751 	 
C 	 -44.8905 	 36.3818 	 81.438 	 
H 	 -43.4598 	 36.557 	 80.0463 	 
C 	 -43.1213 	 39.4593 	 80.3099 	 
H 	 -43.662 	 40.3348 	 80.0005 	 
H 	 -42.8688 	 38.8624 	 79.3756 	 
C 	 -42.0187 	 39.8735 	 81.2388 	 
H 	 -42.3869 	 40.4871 	 82.0083 	 
H 	 -41.6226 	 39.1449 	 81.8737 	 
C 	 -40.9011 	 40.5696 	 80.4779 	 
H 	 -40.1815 	 40.8993 	 81.226 	 
H 	 -40.4858 	 39.8788 	 79.8213 	 
H 	 -41.2363 	 41.3566 	 79.9157 	 
S 	 -46.9039 	 34.6486 	 80.9435 	 
C 	 -46.5816 	 32.9916 	 80.7154 	 
C 	 -45.2187 	 32.7645 	 80.6513 	 
C 	 -44.4624 	 33.9008 	 81.1311 	 
C 	 -45.2348 	 34.9969 	 81.1913 	 
H 	 -44.8273 	 31.7657 	 80.5874 	 
C 	 -42.9837 	 33.9024 	 81.2913 	 
H 	 -42.7593 	 33.0875 	 82.012 	 
H 	 -42.6132 	 34.7377 	 81.848 	 
C 	 -42.1932 	 33.8633 	 80.011 	 
H 	 -42.6895 	 34.3436 	 79.2234 	 
H 	 -42.2154 	 32.9381 	 79.5716 	 
C 	 -40.7445 	 34.337 	 80.3108 	 
H 	 -40.0941 	 33.5288 	 80.72 	 
H 	 -40.6675 	 35.218 	 80.9916 	 
H 	 -40.188 	 34.5295 	 79.3086 	 
H 	 -45.2612 	 39.817 	 82.3327 	 
H 	 -47.3473 	 32.2471 	 80.5677 	 
