34

S 	 -56.2618 	 38.6856 	 107.595 	 
C 	 -55.3284 	 38.529 	 106.147 	 
C 	 -54.1002 	 38.0355 	 106.517 	 
C 	 -53.7549 	 37.9621 	 107.925 	 
C 	 -54.8702 	 38.4159 	 108.649 	 
H 	 -52.8179 	 37.7338 	 108.405 	 
C 	 -53.0249 	 37.6944 	 105.522 	 
H 	 -53.5821 	 37.3361 	 104.681 	 
H 	 -52.5601 	 36.7924 	 105.833 	 
C 	 -51.9258 	 38.7522 	 105.249 	 
H 	 -52.3804 	 39.5827 	 104.653 	 
H 	 -51.5661 	 39.157 	 106.191 	 
C 	 -50.7883 	 38.2079 	 104.331 	 
H 	 -50.1862 	 37.3547 	 104.752 	 
H 	 -51.1987 	 37.8439 	 103.414 	 
H 	 -50.2008 	 39.0088 	 104.005 	 
S 	 -53.8356 	 39.4948 	 110.855 	 
C 	 -54.5599 	 39.2192 	 112.362 	 
C 	 -55.6712 	 38.3711 	 112.237 	 
C 	 -55.9384 	 37.9243 	 110.961 	 
C 	 -55.0195 	 38.4528 	 110.083 	 
H 	 -56.1627 	 38.1968 	 113.22 	 
C 	 -56.9872 	 36.9397 	 110.726 	 
H 	 -56.7181 	 36.419 	 109.798 	 
H 	 -57.874 	 37.4816 	 110.414 	 
C 	 -57.1625 	 35.8239 	 111.734 	 
H 	 -57.5971 	 36.2742 	 112.662 	 
H 	 -56.2253 	 35.3029 	 112.024 	 
C 	 -58.0839 	 34.7254 	 111.131 	 
H 	 -58.1421 	 33.9154 	 111.816 	 
H 	 -57.8434 	 34.3625 	 110.107 	 
H 	 -59.0459 	 35.2999 	 110.991 	 
H 	 -55.6405 	 38.3988 	 105.142 	 
H 	 -54.1821 	 39.539 	 113.364 	 
