34

S 	 -6.71293 	 -7.97529 	 80.7964 	 
C 	 -6.69907 	 -9.52942 	 79.9492 	 
C 	 -5.71329 	 -10.4441 	 80.4243 	 
C 	 -5.3089 	 -9.97937 	 81.7342 	 
C 	 -5.78624 	 -8.73034 	 82.0709 	 
H 	 -4.61331 	 -10.4732 	 82.3627 	 
C 	 -5.43336 	 -11.8641 	 79.9986 	 
H 	 -6.28436 	 -12.524 	 79.8069 	 
H 	 -4.87673 	 -12.3956 	 80.7595 	 
C 	 -4.38761 	 -12.0943 	 78.8682 	 
H 	 -4.63932 	 -13.071 	 78.3781 	 
H 	 -4.4222 	 -11.2645 	 78.1111 	 
C 	 -2.95589 	 -12.0991 	 79.4016 	 
H 	 -2.66965 	 -11.1803 	 79.8485 	 
H 	 -2.68549 	 -13.0207 	 80.0594 	 
H 	 -2.31024 	 -12.2101 	 78.5077 	 
S 	 -4.61087 	 -6.45593 	 82.9709 	 
C 	 -4.64692 	 -6.15289 	 84.6592 	 
C 	 -5.33132 	 -7.14684 	 85.3292 	 
C 	 -5.79942 	 -8.20735 	 84.5016 	 
C 	 -5.40547 	 -7.98392 	 83.2424 	 
H 	 -5.32473 	 -7.07809 	 86.4638 	 
C 	 -6.68577 	 -9.35279 	 84.9873 	 
H 	 -6.66087 	 -9.47013 	 86.0455 	 
H 	 -6.17126 	 -10.3293 	 84.7367 	 
C 	 -8.20327 	 -9.29009 	 84.5247 	 
H 	 -8.61938 	 -10.2254 	 84.864 	 
H 	 -8.13999 	 -9.16341 	 83.4317 	 
C 	 -8.89186 	 -8.05217 	 84.9578 	 
H 	 -8.52679 	 -7.17874 	 84.3615 	 
H 	 -8.7173 	 -7.89311 	 86.0662 	 
H 	 -9.93194 	 -8.10241 	 84.8378 	 
H 	 -7.1235 	 -9.78838 	 78.9417 	 
H 	 -4.37722 	 -5.25814 	 85.1568 	 
