34

S 	 66.202 	 22.0618 	 70.8283 	 
C 	 65.909 	 20.8992 	 72.0827 	 
C 	 66.423 	 21.1826 	 73.2947 	 
C 	 67.0741 	 22.4496 	 73.1404 	 
C 	 67.0927 	 22.988 	 71.8763 	 
H 	 67.7051 	 22.9395 	 73.904 	 
C 	 66.4432 	 20.3659 	 74.5852 	 
H 	 65.532 	 19.7709 	 74.4613 	 
H 	 66.353 	 20.9398 	 75.4206 	 
C 	 67.5951 	 19.4568 	 74.7761 	 
H 	 67.9639 	 18.9886 	 73.8399 	 
H 	 68.4216 	 20.012 	 75.1633 	 
C 	 67.2505 	 18.4233 	 75.8104 	 
H 	 67.9922 	 17.598 	 76.0227 	 
H 	 67.0022 	 18.9323 	 76.7855 	 
H 	 66.3337 	 17.8662 	 75.402 	 
S 	 66.3319 	 25.4195 	 70.7051 	 
C 	 67.5174 	 26.6625 	 70.5923 	 
C 	 68.7543 	 26.2277 	 70.9322 	 
C 	 68.7706 	 24.8801 	 71.4505 	 
C 	 67.4908 	 24.351 	 71.5084 	 
H 	 69.6063 	 26.9048 	 70.8195 	 
C 	 70.0141 	 24.2288 	 72.0594 	 
H 	 69.8493 	 23.1836 	 72.4023 	 
H 	 70.2009 	 24.7276 	 73.0099 	 
C 	 71.3151 	 24.2396 	 71.1925 	 
H 	 71.5201 	 25.2706 	 71.0482 	 
H 	 71.0762 	 23.7279 	 70.2506 	 
C 	 72.5482 	 23.6035 	 71.888 	 
H 	 73.4096 	 23.5152 	 71.2315 	 
H 	 72.4066 	 22.6119 	 72.2399 	 
H 	 73.0021 	 24.2241 	 72.6767 	 
H 	 65.3859 	 20.0156 	 71.966 	 
H 	 67.3235 	 27.6855 	 70.3647 	 
