34

S 	 -101.141 	 57.8848 	 121.504 	 
C 	 -101.197 	 59.4284 	 120.621 	 
C 	 -102.427 	 59.6188 	 119.98 	 
C 	 -103.277 	 58.5025 	 120.12 	 
C 	 -102.739 	 57.426 	 120.845 	 
H 	 -104.267 	 58.381 	 119.662 	 
C 	 -102.845 	 60.8488 	 119.232 	 
H 	 -102.082 	 61.5318 	 119.414 	 
H 	 -103.881 	 61.2305 	 119.581 	 
C 	 -102.883 	 60.6334 	 117.732 	 
H 	 -103.5 	 59.8004 	 117.4 	 
H 	 -103.346 	 61.498 	 117.259 	 
C 	 -101.47 	 60.6022 	 117.198 	 
H 	 -100.991 	 59.7597 	 117.596 	 
H 	 -101.54 	 60.5314 	 116.099 	 
H 	 -101 	 61.5851 	 117.493 	 
S 	 -102.169 	 54.7449 	 120.879 	 
C 	 -103.511 	 53.6424 	 121.328 	 
C 	 -104.69 	 54.2959 	 121.692 	 
C 	 -104.532 	 55.6938 	 121.632 	 
C 	 -103.274 	 56.0951 	 121.104 	 
H 	 -105.635 	 53.796 	 121.962 	 
C 	 -105.729 	 56.5772 	 121.868 	 
H 	 -106.166 	 56.8501 	 120.927 	 
H 	 -105.384 	 57.5484 	 122.319 	 
C 	 -106.908 	 56.0957 	 122.816 	 
H 	 -106.535 	 55.8528 	 123.812 	 
H 	 -107.317 	 55.1214 	 122.54 	 
C 	 -108.14 	 57.0492 	 122.917 	 
H 	 -108.668 	 57.2058 	 121.986 	 
H 	 -107.892 	 58.0947 	 123.289 	 
H 	 -108.72 	 56.5817 	 123.7 	 
H 	 -100.448 	 60.1706 	 120.62 	 
H 	 -103.452 	 52.5683 	 121.291 	 
