34

S 	 -58.6253 	 51.0981 	 136.042 	 
C 	 -56.9649 	 51.4861 	 136.289 	 
C 	 -56.1561 	 50.4594 	 135.919 	 
C 	 -56.9384 	 49.3168 	 135.527 	 
C 	 -58.3016 	 49.504 	 135.481 	 
H 	 -56.4855 	 48.4005 	 135.089 	 
C 	 -54.6537 	 50.5191 	 135.799 	 
H 	 -54.2733 	 49.483 	 135.99 	 
H 	 -54.2772 	 51.117 	 136.654 	 
C 	 -54.2211 	 50.8404 	 134.377 	 
H 	 -54.7566 	 51.6467 	 133.842 	 
H 	 -53.1387 	 50.9825 	 134.288 	 
C 	 -54.5049 	 49.7522 	 133.416 	 
H 	 -53.9959 	 49.7777 	 132.483 	 
H 	 -54.2859 	 48.8091 	 133.83 	 
H 	 -55.5507 	 49.9177 	 133.066 	 
S 	 -58.877 	 47.7592 	 133.561 	 
C 	 -60.3145 	 46.8203 	 133.72 	 
C 	 -61.1121 	 47.2511 	 134.733 	 
C 	 -60.5562 	 48.2332 	 135.529 	 
C 	 -59.3765 	 48.6281 	 134.966 	 
H 	 -62.0726 	 46.7799 	 134.944 	 
C 	 -61.2707 	 48.7731 	 136.693 	 
H 	 -62.301 	 48.7921 	 136.34 	 
H 	 -60.972 	 49.8008 	 136.681 	 
C 	 -60.7975 	 48.213 	 138.056 	 
H 	 -59.9811 	 48.8099 	 138.366 	 
H 	 -60.3138 	 47.2871 	 138.021 	 
C 	 -61.8358 	 48.3427 	 139.173 	 
H 	 -62.7411 	 47.7494 	 138.89 	 
H 	 -62.1101 	 49.3997 	 139.195 	 
H 	 -61.4264 	 47.9408 	 140.132 	 
H 	 -56.5303 	 52.4269 	 136.563 	 
H 	 -60.4199 	 45.9675 	 133.029 	 
