34

S 	 1.61388 	 -1.47212 	 85.6296 	 
C 	 1.91243 	 -1.4178 	 87.3353 	 
C 	 1.9103 	 -2.70542 	 87.8336 	 
C 	 1.78018 	 -3.72139 	 86.8784 	 
C 	 1.50675 	 -3.22354 	 85.6176 	 
H 	 1.64588 	 -4.77526 	 87.0843 	 
C 	 1.90674 	 -3.04386 	 89.2739 	 
H 	 1.00926 	 -3.54731 	 89.3879 	 
H 	 1.9074 	 -2.17493 	 89.8085 	 
C 	 3.15561 	 -3.83373 	 89.7768 	 
H 	 3.03375 	 -4.08157 	 90.8126 	 
H 	 3.16065 	 -4.86519 	 89.4332 	 
C 	 4.45901 	 -3.08624 	 89.7092 	 
H 	 5.29226 	 -3.60215 	 90.1932 	 
H 	 4.80357 	 -2.85767 	 88.7387 	 
H 	 4.27626 	 -2.14817 	 90.2369 	 
S 	 -0.482757 	 -3.53451 	 83.709 	 
C 	 -0.237815 	 -4.65245 	 82.4014 	 
C 	 0.846901 	 -5.46887 	 82.5991 	 
C 	 1.55648 	 -5.08862 	 83.7581 	 
C 	 1.07121 	 -3.99852 	 84.4536 	 
H 	 1.14489 	 -6.29937 	 81.9601 	 
C 	 2.83354 	 -5.79839 	 84.042 	 
H 	 3.58782 	 -5.16873 	 84.4484 	 
H 	 3.30439 	 -6.08809 	 83.1402 	 
C 	 2.73743 	 -6.98854 	 85.0653 	 
H 	 2.49847 	 -6.65466 	 86.0428 	 
H 	 3.71643 	 -7.40586 	 85.2346 	 
C 	 1.78987 	 -8.12856 	 84.6681 	 
H 	 2.24614 	 -8.72555 	 83.8172 	 
H 	 0.856734 	 -7.70408 	 84.4283 	 
H 	 1.5167 	 -8.78534 	 85.4653 	 
H 	 1.99653 	 -0.475552 	 87.8268 	 
H 	 -0.946187 	 -4.94166 	 81.6151 	 
