34

S 	 9.96087 	 -12.3661 	 77.8204 	 
C 	 8.65335 	 -13.4741 	 78.1216 	 
C 	 8.39583 	 -14.3517 	 77.1016 	 
C 	 9.4179 	 -14.2363 	 76.0783 	 
C 	 10.4023 	 -13.3171 	 76.3465 	 
H 	 9.42275 	 -14.6211 	 75.1229 	 
C 	 7.31165 	 -15.3718 	 77.0855 	 
H 	 7.11677 	 -15.5421 	 76.0571 	 
H 	 6.39305 	 -14.9471 	 77.483 	 
C 	 7.69651 	 -16.7261 	 77.7552 	 
H 	 8.72883 	 -17.0606 	 77.5769 	 
H 	 7.75434 	 -16.5501 	 78.829 	 
C 	 6.71136 	 -17.7687 	 77.3024 	 
H 	 6.82041 	 -17.9724 	 76.2465 	 
H 	 6.94799 	 -18.6251 	 77.8383 	 
H 	 5.71674 	 -17.528 	 77.6988 	 
S 	 11.6702 	 -11.1535 	 75.1181 	 
C 	 13.0623 	 -11.4988 	 74.0929 	 
C 	 13.5701 	 -12.7566 	 74.3204 	 
C 	 12.6134 	 -13.5579 	 75.026 	 
C 	 11.5299 	 -12.8422 	 75.5447 	 
H 	 14.4574 	 -13.0085 	 73.7938 	 
C 	 12.7958 	 -15.0609 	 75.2002 	 
H 	 13.462 	 -15.4104 	 74.4448 	 
H 	 11.8771 	 -15.5158 	 75.003 	 
C 	 13.2627 	 -15.5721 	 76.5668 	 
H 	 12.6182 	 -15.3815 	 77.497 	 
H 	 14.185 	 -15.0989 	 76.8703 	 
C 	 13.4618 	 -17.0557 	 76.5442 	 
H 	 14.1032 	 -17.4526 	 77.3825 	 
H 	 13.6347 	 -17.3859 	 75.5757 	 
H 	 12.5388 	 -17.6473 	 76.6322 	 
H 	 8.10744 	 -13.5489 	 79.1397 	 
H 	 13.4962 	 -10.8997 	 73.3331 	 
