34

S 	 -42.3391 	 34.5828 	 79.414 	 
C 	 -43.818 	 33.8275 	 79.101 	 
C 	 -44.071 	 32.8258 	 80.0109 	 
C 	 -42.9794 	 32.6621 	 80.9016 	 
C 	 -41.9663 	 33.5052 	 80.6959 	 
H 	 -42.8907 	 31.9148 	 81.6498 	 
C 	 -45.3006 	 31.9702 	 79.8992 	 
H 	 -45.0529 	 31.1389 	 80.5852 	 
H 	 -45.4727 	 31.4885 	 78.9448 	 
C 	 -46.6712 	 32.6462 	 80.3431 	 
H 	 -47.3411 	 31.8557 	 80.633 	 
H 	 -46.629 	 33.3917 	 81.1792 	 
C 	 -47.5463 	 33.2213 	 79.1787 	 
H 	 -48.5845 	 33.5264 	 79.473 	 
H 	 -47.0611 	 34.0646 	 78.6522 	 
H 	 -47.3897 	 32.5158 	 78.3954 	 
S 	 -39.8851 	 35.1134 	 81.671 	 
C 	 -38.6985 	 34.3652 	 82.6157 	 
C 	 -38.9083 	 33.0089 	 82.7876 	 
C 	 -39.9983 	 32.5127 	 82.0014 	 
C 	 -40.7103 	 33.5864 	 81.402 	 
H 	 -38.2439 	 32.3151 	 83.3279 	 
C 	 -40.2958 	 30.9889 	 82.0158 	 
H 	 -41.3045 	 30.788 	 82.41 	 
H 	 -39.6042 	 30.6459 	 82.7686 	 
C 	 -39.9667 	 30.447 	 80.6282 	 
H 	 -38.9507 	 30.7381 	 80.2726 	 
H 	 -40.6306 	 30.7302 	 79.8117 	 
C 	 -40.0846 	 28.9173 	 80.617 	 
H 	 -39.6886 	 28.4799 	 81.5455 	 
H 	 -39.4298 	 28.5408 	 79.7462 	 
H 	 -41.0619 	 28.5439 	 80.3568 	 
H 	 -44.5512 	 34.2732 	 78.4715 	 
H 	 -37.8602 	 34.9303 	 83.1629 	 
