34

S 	 6.41665 	 -15.8688 	 67.9359 	 
C 	 6.94632 	 -17.5365 	 67.5079 	 
C 	 8.3186 	 -17.6776 	 67.6281 	 
C 	 8.96989 	 -16.4094 	 67.8238 	 
C 	 8.0687 	 -15.2692 	 67.9117 	 
H 	 10.0684 	 -16.2355 	 67.9353 	 
C 	 8.98859 	 -18.9416 	 67.1756 	 
H 	 8.10015 	 -19.6658 	 67.0484 	 
H 	 9.61087 	 -19.3625 	 67.9167 	 
C 	 9.61467 	 -18.9023 	 65.7532 	 
H 	 10.4649 	 -18.2914 	 65.8309 	 
H 	 9.97633 	 -19.8679 	 65.4116 	 
C 	 8.64469 	 -18.3901 	 64.7483 	 
H 	 7.89722 	 -19.1149 	 64.4862 	 
H 	 8.0768 	 -17.5158 	 64.9543 	 
H 	 9.1318 	 -18.2248 	 63.8211 	 
S 	 6.98879 	 -13.077 	 69.0913 	 
C 	 7.93553 	 -11.6424 	 69.3353 	 
C 	 9.17888 	 -11.7617 	 68.7995 	 
C 	 9.42543 	 -13.0833 	 68.2031 	 
C 	 8.32735 	 -13.9252 	 68.3858 	 
H 	 9.85797 	 -10.9129 	 68.7888 	 
C 	 10.7997 	 -13.3985 	 67.5732 	 
H 	 10.9789 	 -14.4191 	 67.7037 	 
H 	 11.5642 	 -12.8997 	 68.0693 	 
C 	 10.8997 	 -12.9884 	 66.1157 	 
H 	 11.8695 	 -13.3077 	 65.7212 	 
H 	 10.8655 	 -11.8932 	 66.1253 	 
C 	 9.89883 	 -13.4896 	 65.0977 	 
H 	 8.94256 	 -12.9578 	 65.2145 	 
H 	 9.66732 	 -14.5365 	 65.1789 	 
H 	 10.2012 	 -13.3755 	 64.0695 	 
H 	 6.45179 	 -18.4409 	 67.2346 	 
H 	 7.49047 	 -10.7532 	 69.8465 	 
