34

S 	 -101.852 	 57.1981 	 120.633 	 
C 	 -101.499 	 58.3622 	 119.398 	 
C 	 -102.482 	 59.306 	 119.205 	 
C 	 -103.642 	 58.9446 	 119.958 	 
C 	 -103.455 	 57.8191 	 120.738 	 
H 	 -104.632 	 59.4028 	 120.083 	 
C 	 -102.433 	 60.4188 	 118.184 	 
H 	 -101.42 	 60.6242 	 117.807 	 
H 	 -102.757 	 61.2424 	 118.801 	 
C 	 -103.364 	 60.3061 	 116.935 	 
H 	 -104.32 	 59.8907 	 117.238 	 
H 	 -103.446 	 61.3697 	 116.524 	 
C 	 -102.804 	 59.6045 	 115.693 	 
H 	 -102.285 	 58.6285 	 115.963 	 
H 	 -103.724 	 59.4149 	 115.021 	 
H 	 -102.087 	 60.1715 	 115.068 	 
S 	 -103.864 	 56.3089 	 123.015 	 
C 	 -105.442 	 55.8907 	 123.639 	 
C 	 -106.371 	 56.5582 	 122.894 	 
C 	 -105.835 	 57.2419 	 121.681 	 
C 	 -104.432 	 57.2317 	 121.63 	 
H 	 -107.414 	 56.6149 	 123.184 	 
C 	 -106.838 	 57.9688 	 120.703 	 
H 	 -107.577 	 57.2098 	 120.543 	 
H 	 -106.439 	 58.1724 	 119.758 	 
C 	 -107.46 	 59.2219 	 121.285 	 
H 	 -106.874 	 60.0588 	 121.171 	 
H 	 -107.535 	 59.0145 	 122.365 	 
C 	 -108.756 	 59.6097 	 120.554 	 
H 	 -109.558 	 58.8642 	 120.655 	 
H 	 -108.542 	 59.8113 	 119.528 	 
H 	 -109.179 	 60.494 	 121.025 	 
H 	 -100.513 	 58.4418 	 118.956 	 
H 	 -105.76 	 55.52 	 124.629 	 
