34

S 	 -95.5058 	 60.0655 	 129.694 	 
C 	 -95.3398 	 59.4127 	 131.322 	 
C 	 -94.0899 	 59.7227 	 131.842 	 
C 	 -93.1929 	 60.2014 	 130.81 	 
C 	 -93.7859 	 60.399 	 129.565 	 
H 	 -92.1674 	 60.5157 	 131.025 	 
C 	 -93.6583 	 59.4487 	 133.309 	 
H 	 -94.3534 	 58.8306 	 133.898 	 
H 	 -93.6777 	 60.4096 	 133.829 	 
C 	 -92.2107 	 58.817 	 133.424 	 
H 	 -92.2485 	 57.8781 	 132.765 	 
H 	 -91.4199 	 59.4519 	 132.89 	 
C 	 -91.648 	 58.2918 	 134.779 	 
H 	 -91.4491 	 59.1823 	 135.362 	 
H 	 -92.3069 	 57.5554 	 135.225 	 
H 	 -90.7421 	 57.7787 	 134.549 	 
S 	 -94.172 	 61.5545 	 127.084 	 
C 	 -92.7974 	 62.1515 	 126.156 	 
C 	 -91.6734 	 61.8991 	 126.82 	 
C 	 -91.8575 	 61.0785 	 127.975 	 
C 	 -93.1964 	 61.0055 	 128.382 	 
H 	 -90.6733 	 62.2382 	 126.44 	 
C 	 -90.6675 	 60.5186 	 128.67 	 
H 	 -91.0031 	 59.7541 	 129.396 	 
H 	 -90.1553 	 61.278 	 129.19 	 
C 	 -89.6894 	 59.9072 	 127.714 	 
H 	 -89.1543 	 60.6924 	 127.168 	 
H 	 -90.1349 	 59.316 	 126.995 	 
C 	 -88.6886 	 58.9735 	 128.403 	 
H 	 -89.0456 	 58.1684 	 129.086 	 
H 	 -88.0043 	 59.5369 	 129.095 	 
H 	 -88.0418 	 58.5105 	 127.701 	 
H 	 -96.1713 	 59.0357 	 131.988 	 
H 	 -92.8906 	 62.8421 	 125.301 	 
