34

S 	 -21.5031 	 47.8847 	 64.7027 	 
C 	 -22.1436 	 49.1565 	 63.6479 	 
C 	 -21.7209 	 50.3712 	 64.1774 	 
C 	 -21.2237 	 50.2882 	 65.5398 	 
C 	 -21.1872 	 48.9877 	 66.0081 	 
H 	 -21.1849 	 51.0788 	 66.2363 	 
C 	 -21.6854 	 51.6331 	 63.3808 	 
H 	 -22.3121 	 52.3947 	 63.8387 	 
H 	 -22.027 	 51.4969 	 62.354 	 
C 	 -20.358 	 52.3799 	 63.3198 	 
H 	 -20.4563 	 53.1353 	 62.5724 	 
H 	 -20.1566 	 52.8833 	 64.2694 	 
C 	 -19.1058 	 51.5652 	 62.9106 	 
H 	 -19.3864 	 51.0609 	 61.9421 	 
H 	 -18.2792 	 52.1289 	 62.794 	 
H 	 -18.8895 	 50.7647 	 63.6159 	 
S 	 -22.0705 	 46.9171 	 67.5662 	 
C 	 -21.5143 	 46.8292 	 69.2228 	 
C 	 -20.8169 	 47.962 	 69.6044 	 
C 	 -20.6468 	 48.8896 	 68.545 	 
C 	 -21.101 	 48.4213 	 67.3479 	 
H 	 -20.505 	 48.2103 	 70.6605 	 
C 	 -19.873 	 50.2332 	 68.7878 	 
H 	 -19.9974 	 50.5463 	 69.8382 	 
H 	 -20.4102 	 50.9462 	 68.1946 	 
C 	 -18.4876 	 50.1953 	 68.3636 	 
H 	 -18.4182 	 50.0612 	 67.3138 	 
H 	 -17.9521 	 49.3285 	 68.7709 	 
C 	 -17.7044 	 51.4415 	 68.865 	 
H 	 -18.0725 	 52.2963 	 68.2666 	 
H 	 -16.6087 	 51.3034 	 68.7834 	 
H 	 -17.8544 	 51.6633 	 69.9498 	 
H 	 -22.3323 	 48.9292 	 62.6378 	 
H 	 -21.7844 	 45.9814 	 69.745 	 
