34

S 	 -47.9068 	 37.4431 	 79.3463 	 
C 	 -46.9792 	 37.7993 	 77.9258 	 
C 	 -46.5857 	 39.1209 	 77.896 	 
C 	 -47.3591 	 39.8527 	 78.7857 	 
C 	 -48.3144 	 39.122 	 79.4855 	 
H 	 -47.194 	 40.8572 	 78.8601 	 
C 	 -45.6566 	 39.7376 	 77.0124 	 
H 	 -44.5807 	 39.4544 	 77.1748 	 
H 	 -45.6624 	 40.8107 	 77.2039 	 
C 	 -45.7969 	 39.3684 	 75.5481 	 
H 	 -45.1874 	 40.015 	 74.9381 	 
H 	 -45.564 	 38.3646 	 75.3054 	 
C 	 -47.1819 	 39.5475 	 75.0039 	 
H 	 -47.3087 	 38.917 	 74.1324 	 
H 	 -47.9129 	 39.2313 	 75.747 	 
H 	 -47.3237 	 40.6033 	 74.6554 	 
S 	 -49.0632 	 39.4096 	 82.1716 	 
C 	 -50.1466 	 40.7179 	 82.5508 	 
C 	 -50.5099 	 41.4574 	 81.4233 	 
C 	 -50.0687 	 40.8165 	 80.1799 	 
C 	 -49.2165 	 39.7752 	 80.4085 	 
H 	 -51.0327 	 42.3302 	 81.5642 	 
C 	 -50.4906 	 41.4543 	 78.9099 	 
H 	 -49.7468 	 41.2955 	 78.1817 	 
H 	 -50.4838 	 42.5878 	 79.0348 	 
C 	 -51.9506 	 41.2438 	 78.4712 	 
H 	 -52.1392 	 40.2054 	 78.5101 	 
H 	 -51.9568 	 41.4661 	 77.4569 	 
C 	 -53.1324 	 41.7623 	 79.2972 	 
H 	 -52.9674 	 42.8022 	 79.5224 	 
H 	 -53.2858 	 41.2124 	 80.2161 	 
H 	 -54.0658 	 41.5099 	 78.6964 	 
H 	 -46.4447 	 37.0616 	 77.3569 	 
H 	 -50.3522 	 41.1059 	 83.606 	 
