34

S 	 -79.7049 	 45.1839 	 129.296 	 
C 	 -81.3168 	 44.608 	 129.005 	 
C 	 -82.1718 	 45.113 	 129.994 	 
C 	 -81.5202 	 45.8769 	 131.034 	 
C 	 -80.1468 	 45.9222 	 130.854 	 
H 	 -82.0432 	 46.3067 	 131.962 	 
C 	 -83.6866 	 44.9146 	 129.938 	 
H 	 -84.0576 	 44.0865 	 130.616 	 
H 	 -83.9588 	 44.4467 	 128.993 	 
C 	 -84.5378 	 46.1926 	 130.048 	 
H 	 -85.6361 	 45.9959 	 129.825 	 
H 	 -84.6969 	 46.5497 	 131.095 	 
C 	 -84.0315 	 47.3729 	 129.19 	 
H 	 -83.5073 	 47.9838 	 129.885 	 
H 	 -83.2905 	 47.0679 	 128.507 	 
H 	 -84.816 	 47.9489 	 128.712 	 
S 	 -78.234 	 47.8365 	 131.195 	 
C 	 -77.6208 	 48.2243 	 132.778 	 
C 	 -78.0854 	 47.3194 	 133.715 	 
C 	 -79.0006 	 46.378 	 133.182 	 
C 	 -79.1847 	 46.4838 	 131.794 	 
H 	 -77.935 	 47.415 	 134.775 	 
C 	 -79.6995 	 45.324 	 134.076 	 
H 	 -80.0648 	 44.6332 	 133.402 	 
H 	 -80.6624 	 45.8321 	 134.436 	 
C 	 -78.9599 	 44.63 	 135.254 	 
H 	 -78.3895 	 45.4289 	 135.915 	 
H 	 -78.1512 	 43.972 	 134.934 	 
C 	 -79.9471 	 43.9697 	 136.161 	 
H 	 -79.6089 	 43.2971 	 136.932 	 
H 	 -80.4912 	 43.3289 	 135.477 	 
H 	 -80.7094 	 44.7346 	 136.579 	 
H 	 -81.6512 	 43.9916 	 128.105 	 
H 	 -77.0176 	 49.0512 	 133.138 	 
