34

S 	 33.3659 	 -2.59564 	 66.5439 	 
C 	 33.3402 	 -0.861851 	 66.4532 	 
C 	 33.2556 	 -0.331749 	 67.71 	 
C 	 32.8868 	 -1.23824 	 68.7291 	 
C 	 32.9301 	 -2.55061 	 68.2179 	 
H 	 32.6124 	 -0.893646 	 69.6662 	 
C 	 33.2109 	 1.20242 	 67.9697 	 
H 	 32.4814 	 1.39506 	 68.7485 	 
H 	 32.6865 	 1.71293 	 67.1003 	 
C 	 34.5455 	 1.93193 	 68.1581 	 
H 	 35.306 	 1.5003 	 67.5335 	 
H 	 34.3991 	 3.01221 	 67.8711 	 
C 	 35.0714 	 1.87605 	 69.5881 	 
H 	 34.2019 	 2.03846 	 70.3157 	 
H 	 35.3873 	 0.865267 	 69.7738 	 
H 	 35.9524 	 2.57426 	 69.5448 	 
S 	 32.2876 	 -5.1826 	 67.9614 	 
C 	 31.807 	 -6.01133 	 69.4306 	 
C 	 32.1299 	 -5.38867 	 70.5665 	 
C 	 32.6443 	 -4.11728 	 70.3052 	 
C 	 32.6796 	 -3.7924 	 68.9308 	 
H 	 31.9623 	 -5.82319 	 71.5568 	 
C 	 33.0015 	 -3.12018 	 71.4058 	 
H 	 32.6737 	 -3.58438 	 72.3409 	 
H 	 32.4201 	 -2.25177 	 71.3129 	 
C 	 34.456 	 -2.67644 	 71.4684 	 
H 	 34.6239 	 -1.98146 	 70.6412 	 
H 	 35.0629 	 -3.52408 	 71.1695 	 
C 	 35.0325 	 -2.04343 	 72.7954 	 
H 	 36.0432 	 -1.67372 	 72.777 	 
H 	 35.0007 	 -2.80692 	 73.5236 	 
H 	 34.4879 	 -1.16046 	 73.022 	 
H 	 33.5799 	 -0.264724 	 65.6213 	 
H 	 31.3161 	 -6.97133 	 69.5234 	 
