34

S 	 7.61669 	 19.9941 	 40.7299 	 
C 	 7.36725 	 21.5335 	 39.8428 	 
C 	 8.39965 	 22.4229 	 40.0626 	 
C 	 9.45876 	 21.7668 	 40.8254 	 
C 	 9.25014 	 20.4331 	 41.1544 	 
H 	 10.3091 	 22.2486 	 41.2736 	 
C 	 8.37612 	 23.9192 	 39.7071 	 
H 	 7.6767 	 24.0794 	 38.8399 	 
H 	 9.3647 	 24.112 	 39.358 	 
C 	 8.1629 	 24.8827 	 40.9131 	 
H 	 7.1625 	 24.7047 	 41.4159 	 
H 	 8.83688 	 24.408 	 41.677 	 
C 	 8.31408 	 26.4121 	 40.7152 	 
H 	 7.56743 	 26.7815 	 39.9681 	 
H 	 8.25387 	 26.782 	 41.7232 	 
H 	 9.37446 	 26.5829 	 40.3839 	 
S 	 9.24705 	 18.9111 	 43.4209 	 
C 	 10.9065 	 18.218 	 43.89 	 
C 	 11.8613 	 18.4862 	 42.969 	 
C 	 11.3713 	 19.2188 	 41.8201 	 
C 	 10.0417 	 19.6363 	 42.0095 	 
H 	 12.8611 	 18.1641 	 43.312 	 
C 	 12.2851 	 19.8052 	 40.8115 	 
H 	 11.6715 	 20.3622 	 40.0326 	 
H 	 12.8612 	 18.8971 	 40.4396 	 
C 	 13.374 	 20.7774 	 41.4136 	 
H 	 14.0327 	 20.1437 	 42.0008 	 
H 	 12.9973 	 21.6061 	 41.963 	 
C 	 14.1212 	 21.2751 	 40.2351 	 
H 	 15.1036 	 21.7666 	 40.5846 	 
H 	 13.4802 	 22.0789 	 39.7232 	 
H 	 14.578 	 20.5375 	 39.6255 	 
H 	 6.48069 	 21.6762 	 39.211 	 
H 	 11.0884 	 17.5793 	 44.7423 	 
