34

S 	 35.5336 	 15.5516 	 63.2458 	 
C 	 34.945 	 16.1909 	 64.7329 	 
C 	 35.5783 	 15.6943 	 65.863 	 
C 	 36.3767 	 14.567 	 65.4838 	 
C 	 36.4588 	 14.3352 	 64.1266 	 
H 	 36.7034 	 13.8189 	 66.2 	 
C 	 35.4146 	 16.0422 	 67.3036 	 
H 	 36.2353 	 16.6442 	 67.6575 	 
H 	 35.429 	 15.1538 	 67.9281 	 
C 	 34.1109 	 16.7951 	 67.662 	 
H 	 33.9504 	 17.6304 	 67.0931 	 
H 	 33.3548 	 16.0778 	 67.2497 	 
C 	 33.8858 	 16.9198 	 69.2234 	 
H 	 34.5527 	 17.707 	 69.6065 	 
H 	 32.9217 	 17.3446 	 69.4123 	 
H 	 34.0362 	 15.9021 	 69.8407 	 
S 	 38.3778 	 13.9745 	 62.2606 	 
C 	 39.3945 	 12.5771 	 62.2141 	 
C 	 38.867 	 11.6693 	 63.0699 	 
C 	 37.6237 	 12.0318 	 63.6645 	 
C 	 37.2797 	 13.3518 	 63.4632 	 
H 	 39.3292 	 10.7126 	 63.2868 	 
C 	 36.9686 	 11.1258 	 64.6476 	 
H 	 36.1111 	 11.7084 	 64.9472 	 
H 	 37.5541 	 10.877 	 65.5071 	 
C 	 36.3993 	 9.78201 	 64.0777 	 
H 	 36.1416 	 9.08886 	 64.8265 	 
H 	 37.0624 	 9.20943 	 63.4115 	 
C 	 35.1056 	 9.93547 	 63.3351 	 
H 	 34.2869 	 10.1836 	 64.0413 	 
H 	 34.8562 	 8.9922 	 62.771 	 
H 	 35.1162 	 10.7114 	 62.5831 	 
H 	 34.1702 	 16.9473 	 64.7704 	 
H 	 40.3148 	 12.335 	 61.6926 	 
