34

S 	 -47.2369 	 -1.20079 	 96.3837 	 
C 	 -48.4348 	 -2.44834 	 96.1007 	 
C 	 -49.5079 	 -1.96455 	 95.3542 	 
C 	 -49.4239 	 -0.557796 	 95.0942 	 
C 	 -48.2452 	 0.00536857 	 95.5487 	 
H 	 -50.0837 	 0.0938442 	 94.5786 	 
C 	 -50.6559 	 -2.72987 	 94.6926 	 
H 	 -50.3019 	 -3.19661 	 93.8329 	 
H 	 -51.2937 	 -2.00636 	 94.3039 	 
C 	 -51.3288 	 -3.69734 	 95.6778 	 
H 	 -51.9151 	 -4.39611 	 95.1767 	 
H 	 -50.661 	 -4.31214 	 96.2431 	 
C 	 -52.2202 	 -3.05782 	 96.7164 	 
H 	 -53.2861 	 -3.34943 	 96.6995 	 
H 	 -51.7108 	 -3.32835 	 97.6421 	 
H 	 -52.1151 	 -1.96596 	 96.7397 	 
S 	 -49.1002 	 2.59236 	 95.8146 	 
C 	 -47.8983 	 3.8728 	 95.6693 	 
C 	 -46.7627 	 3.41849 	 94.9814 	 
C 	 -46.6734 	 1.9821 	 95.0499 	 
C 	 -47.834 	 1.40363 	 95.5032 	 
H 	 -46.0759 	 4.20937 	 94.7181 	 
C 	 -45.5321 	 1.19714 	 94.4565 	 
H 	 -45.1187 	 0.581697 	 95.2414 	 
H 	 -44.7495 	 1.93225 	 94.2488 	 
C 	 -45.8241 	 0.330804 	 93.2561 	 
H 	 -46.4147 	 0.926862 	 92.5972 	 
H 	 -46.5269 	 -0.460624 	 93.5565 	 
C 	 -44.617 	 -0.292801 	 92.5844 	 
H 	 -43.9777 	 0.474678 	 92.1692 	 
H 	 -44.9701 	 -0.882551 	 91.7435 	 
H 	 -44.1064 	 -0.963572 	 93.2015 	 
H 	 -48.3045 	 -3.49699 	 96.2789 	 
H 	 -48.1246 	 4.91129 	 95.8225 	 
