34

S 	 41.2071 	 21.7779 	 86.2386 	 
C 	 39.8746 	 22.0969 	 87.3549 	 
C 	 39.1997 	 23.227 	 86.9429 	 
C 	 39.6683 	 23.793 	 85.7175 	 
C 	 40.8174 	 23.1619 	 85.2226 	 
H 	 39.3531 	 24.7267 	 85.2131 	 
C 	 37.9457 	 23.8794 	 87.6181 	 
H 	 38.1926 	 24.769 	 88.19 	 
H 	 37.6381 	 23.0611 	 88.2578 	 
C 	 36.8673 	 24.226 	 86.5945 	 
H 	 37.282 	 25.0179 	 85.8598 	 
H 	 36.5873 	 23.3793 	 85.9863 	 
C 	 35.5962 	 24.8853 	 87.1583 	 
H 	 34.9831 	 25.1993 	 86.2686 	 
H 	 34.8542 	 24.3115 	 87.8327 	 
H 	 35.7091 	 25.7823 	 87.7235 	 
S 	 43.4584 	 23.8221 	 84.538 	 
C 	 43.7775 	 24.1365 	 82.9293 	 
C 	 42.671 	 24.168 	 82.0958 	 
C 	 41.453 	 23.8673 	 82.8033 	 
C 	 41.778 	 23.5627 	 84.1563 	 
H 	 42.7587 	 24.28 	 81.0156 	 
C 	 40.0923 	 23.6536 	 82.0754 	 
H 	 39.6213 	 22.7569 	 82.5579 	 
H 	 40.4329 	 23.2623 	 81.144 	 
C 	 39.0661 	 24.8261 	 81.9781 	 
H 	 38.7532 	 25.1263 	 82.9456 	 
H 	 38.2262 	 24.6271 	 81.3633 	 
C 	 39.7279 	 26.0682 	 81.3607 	 
H 	 39.0273 	 26.9364 	 81.2728 	 
H 	 40.1307 	 25.7716 	 80.3836 	 
H 	 40.6902 	 26.3409 	 81.8433 	 
H 	 39.6913 	 21.5842 	 88.3377 	 
H 	 44.788 	 24.3605 	 82.6754 	 
