34

S 	 -44.2337 	 30.2054 	 75.5666 	 
C 	 -43.031 	 30.9617 	 74.5564 	 
C 	 -41.9349 	 31.3979 	 75.2793 	 
C 	 -42.1013 	 31.0977 	 76.6297 	 
C 	 -43.2287 	 30.3538 	 76.9475 	 
H 	 -41.4388 	 31.3748 	 77.4184 	 
C 	 -40.7196 	 32.1551 	 74.7577 	 
H 	 -40.4625 	 33.0911 	 75.295 	 
H 	 -41.1381 	 32.6605 	 73.9012 	 
C 	 -39.4297 	 31.3837 	 74.4125 	 
H 	 -39.1367 	 30.8195 	 75.2667 	 
H 	 -39.6671 	 30.7195 	 73.6349 	 
C 	 -38.2537 	 32.2659 	 73.8995 	 
H 	 -38.5362 	 32.8759 	 72.9867 	 
H 	 -37.9111 	 32.7647 	 74.7518 	 
H 	 -37.3714 	 31.6542 	 73.6263 	 
S 	 -42.1571 	 29.6177 	 79.2942 	 
C 	 -43.1192 	 29.0994 	 80.6362 	 
C 	 -44.4575 	 29.1394 	 80.272 	 
C 	 -44.7624 	 29.5556 	 78.9372 	 
C 	 -43.6106 	 29.9928 	 78.3119 	 
H 	 -45.1761 	 28.8818 	 81.0307 	 
C 	 -46.1337 	 29.7563 	 78.4562 	 
H 	 -46.9282 	 29.1457 	 78.8634 	 
H 	 -46.1895 	 29.603 	 77.3813 	 
C 	 -46.5444 	 31.2201 	 78.7225 	 
H 	 -45.914 	 31.8262 	 78.2333 	 
H 	 -46.248 	 31.3726 	 79.8122 	 
C 	 -48.0086 	 31.503 	 78.503 	 
H 	 -48.4125 	 31.1882 	 77.5404 	 
H 	 -48.1935 	 32.5654 	 78.7931 	 
H 	 -48.6522 	 30.9452 	 79.1458 	 
H 	 -43.138 	 31.0965 	 73.4818 	 
H 	 -42.7917 	 28.9592 	 81.6931 	 
