34

S 	 -3.38695 	 49.8019 	 40.4087 	 
C 	 -5.06041 	 50.3162 	 40.5597 	 
C 	 -5.87067 	 49.4048 	 41.2281 	 
C 	 -5.20249 	 48.1953 	 41.2135 	 
C 	 -3.85699 	 48.1986 	 40.901 	 
H 	 -5.64497 	 47.2298 	 41.4907 	 
C 	 -7.30591 	 49.5464 	 41.7748 	 
H 	 -7.66927 	 50.3487 	 41.1304 	 
H 	 -7.298 	 49.9224 	 42.8469 	 
C 	 -8.28696 	 48.3864 	 41.6641 	 
H 	 -9.2944 	 48.653 	 41.9312 	 
H 	 -8.34383 	 48.0846 	 40.5478 	 
C 	 -8.03289 	 47.2065 	 42.6398 	 
H 	 -8.78811 	 47.1214 	 43.4139 	 
H 	 -8.27689 	 46.2622 	 42.2235 	 
H 	 -7.00287 	 47.0919 	 42.9827 	 
S 	 -2.03939 	 46.9787 	 39.2163 	 
C 	 -1.2236 	 45.504 	 39.7933 	 
C 	 -1.73694 	 45.0692 	 40.9672 	 
C 	 -2.77354 	 45.8895 	 41.4819 	 
C 	 -2.96272 	 47.0742 	 40.7417 	 
H 	 -1.36927 	 44.0862 	 41.3758 	 
C 	 -3.47126 	 45.5883 	 42.7489 	 
H 	 -2.98342 	 44.684 	 43.0938 	 
H 	 -4.53205 	 45.4201 	 42.6426 	 
C 	 -3.49363 	 46.6921 	 43.8086 	 
H 	 -4.18807 	 47.3625 	 43.4419 	 
H 	 -2.46267 	 47.1041 	 43.8897 	 
C 	 -3.8017 	 46.1636 	 45.1447 	 
H 	 -3.71187 	 46.9118 	 45.9105 	 
H 	 -3.11067 	 45.3783 	 45.5248 	 
H 	 -4.80948 	 45.7587 	 45.1832 	 
H 	 -5.38468 	 51.2792 	 40.2332 	 
H 	 -0.427318 	 44.9441 	 39.2877 	 
