34

S 	 -68.0739 	 41.3115 	 125.607 	 
C 	 -67.9148 	 41.6366 	 127.329 	 
C 	 -68.6384 	 40.6943 	 128.045 	 
C 	 -69.357 	 39.8118 	 127.155 	 
C 	 -69.1251 	 39.9523 	 125.849 	 
H 	 -70.1354 	 39.077 	 127.575 	 
C 	 -68.6666 	 40.7035 	 129.525 	 
H 	 -69.5435 	 41.2523 	 129.871 	 
H 	 -67.8258 	 41.3249 	 129.802 	 
C 	 -68.6694 	 39.4441 	 130.334 	 
H 	 -69.5164 	 38.8577 	 129.987 	 
H 	 -67.85 	 38.8484 	 129.981 	 
C 	 -68.6237 	 39.5411 	 131.867 	 
H 	 -68.3717 	 38.6478 	 132.495 	 
H 	 -67.9586 	 40.3474 	 132.19 	 
H 	 -69.7284 	 39.804 	 132.126 	 
S 	 -71.0203 	 39.9016 	 123.933 	 
C 	 -71.5663 	 38.3993 	 123.22 	 
C 	 -70.7142 	 37.3285 	 123.527 	 
C 	 -69.7297 	 37.7832 	 124.472 	 
C 	 -69.7625 	 39.1686 	 124.779 	 
H 	 -70.8517 	 36.407 	 122.952 	 
C 	 -68.825 	 36.7193 	 124.999 	 
H 	 -67.817 	 36.9876 	 124.78 	 
H 	 -69.0635 	 35.7735 	 124.459 	 
C 	 -68.7789 	 36.5879 	 126.539 	 
H 	 -69.7874 	 36.6066 	 126.888 	 
H 	 -68.1893 	 37.387 	 127.074 	 
C 	 -68.1317 	 35.2957 	 127.056 	 
H 	 -67.0521 	 35.3374 	 127.164 	 
H 	 -68.4289 	 34.5253 	 126.318 	 
H 	 -68.5459 	 35.0868 	 128.022 	 
H 	 -67.273 	 42.402 	 127.693 	 
H 	 -72.386 	 38.2616 	 122.58 	 
