34

S 	 -97.9908 	 42.6255 	 118.495 	 
C 	 -98.6608 	 44.177 	 118.812 	 
C 	 -97.6579 	 45.0919 	 118.8 	 
C 	 -96.4625 	 44.6492 	 118.279 	 
C 	 -96.4709 	 43.3152 	 117.952 	 
H 	 -95.529 	 45.2258 	 118.167 	 
C 	 -97.8364 	 46.5115 	 119.508 	 
H 	 -97.0013 	 46.5217 	 120.304 	 
H 	 -98.775 	 46.5058 	 120.086 	 
C 	 -97.5991 	 47.8529 	 118.807 	 
H 	 -96.6162 	 47.8774 	 118.518 	 
H 	 -98.3057 	 47.9563 	 118.049 	 
C 	 -97.8456 	 49.0508 	 119.83 	 
H 	 -98.7769 	 49.0198 	 120.352 	 
H 	 -97.1429 	 49.1451 	 120.716 	 
H 	 -97.7776 	 50.0387 	 119.384 	 
S 	 -94.5096 	 41.6824 	 118.764 	 
C 	 -93.3458 	 41.0853 	 117.557 	 
C 	 -93.551 	 41.5899 	 116.325 	 
C 	 -94.7139 	 42.412 	 116.236 	 
C 	 -95.2913 	 42.5801 	 117.483 	 
H 	 -92.8608 	 41.2926 	 115.506 	 
C 	 -95.2236 	 43.1326 	 114.931 	 
H 	 -96.2615 	 43.2779 	 115.128 	 
H 	 -95.0333 	 42.5556 	 114.041 	 
C 	 -94.7174 	 44.6235 	 114.645 	 
H 	 -95.0876 	 45.2383 	 115.535 	 
H 	 -95.2866 	 44.8973 	 113.753 	 
C 	 -93.1858 	 44.9227 	 114.646 	 
H 	 -93.0002 	 45.999 	 114.439 	 
H 	 -92.5446 	 44.4541 	 113.88 	 
H 	 -92.7797 	 44.6754 	 115.67 	 
H 	 -99.6413 	 44.3315 	 119.314 	 
H 	 -92.5789 	 40.226 	 117.734 	 
