34

S 	 14.1125 	 -3.11674 	 63.6294 	 
C 	 14.0115 	 -4.47823 	 62.4667 	 
C 	 13.5945 	 -4.11839 	 61.2047 	 
C 	 13.3797 	 -2.70237 	 61.1547 	 
C 	 13.6334 	 -1.96548 	 62.3509 	 
H 	 12.9116 	 -2.21185 	 60.2557 	 
C 	 13.4902 	 -5.10039 	 60.0022 	 
H 	 12.4615 	 -5.40753 	 60.0795 	 
H 	 14.0877 	 -6.00653 	 60.2238 	 
C 	 13.706 	 -4.49783 	 58.6418 	 
H 	 12.8741 	 -3.82233 	 58.4709 	 
H 	 14.6652 	 -3.89589 	 58.5066 	 
C 	 13.6326 	 -5.61481 	 57.5913 	 
H 	 12.6714 	 -6.0993 	 57.5938 	 
H 	 13.8164 	 -5.29629 	 56.4994 	 
H 	 14.4353 	 -6.25672 	 57.8785 	 
S 	 14.8838 	 0.393467 	 63.0982 	 
C 	 13.8948 	 1.77835 	 63.2477 	 
C 	 12.6129 	 1.58465 	 62.8465 	 
C 	 12.3387 	 0.282988 	 62.4718 	 
C 	 13.4592 	 -0.565822 	 62.6038 	 
H 	 11.8484 	 2.3484 	 62.8934 	 
C 	 10.9132 	 -0.155729 	 62.0696 	 
H 	 10.8338 	 -1.24256 	 61.7814 	 
H 	 10.7058 	 0.291711 	 61.0824 	 
C 	 9.88294 	 0.185837 	 63.1616 	 
H 	 9.95666 	 1.28397 	 63.2949 	 
H 	 10.2046 	 -0.357125 	 64.0581 	 
C 	 8.50666 	 -0.190568 	 62.5813 	 
H 	 7.73926 	 -0.005785 	 63.2791 	 
H 	 8.54961 	 -1.21793 	 62.3085 	 
H 	 8.23052 	 0.324354 	 61.7264 	 
H 	 14.1325 	 -5.56083 	 62.5867 	 
H 	 14.1994 	 2.65042 	 63.7543 	 
