34

S 	 -92.8712 	 51.0199 	 125.222 	 
C 	 -94.3063 	 50.7394 	 124.272 	 
C 	 -94.0375 	 50.6136 	 122.895 	 
C 	 -92.6418 	 50.8866 	 122.547 	 
C 	 -91.8979 	 51.1763 	 123.68 	 
H 	 -92.2578 	 51.0229 	 121.489 	 
C 	 -95.0944 	 50.448 	 121.855 	 
H 	 -94.8922 	 50.9859 	 120.912 	 
H 	 -95.9724 	 50.761 	 122.344 	 
C 	 -95.4125 	 49.0217 	 121.319 	 
H 	 -96.2183 	 49.1435 	 120.538 	 
H 	 -94.5062 	 48.6952 	 120.727 	 
C 	 -95.9588 	 47.9934 	 122.37 	 
H 	 -95.1941 	 47.7595 	 123.159 	 
H 	 -96.8415 	 48.2952 	 122.849 	 
H 	 -96.089 	 47.0001 	 121.879 	 
S 	 -90.2375 	 53.1916 	 124.518 	 
C 	 -88.4925 	 53.0133 	 124.416 	 
C 	 -88.2897 	 51.9435 	 123.583 	 
C 	 -89.3477 	 51.1358 	 123.218 	 
C 	 -90.5473 	 51.6715 	 123.701 	 
H 	 -87.2888 	 51.8816 	 123.246 	 
C 	 -89.2324 	 49.8943 	 122.36 	 
H 	 -90.1506 	 49.3169 	 122.503 	 
H 	 -88.4879 	 49.2658 	 122.869 	 
C 	 -89.0625 	 50.0692 	 120.883 	 
H 	 -88.1085 	 50.6371 	 120.884 	 
H 	 -89.8057 	 50.7496 	 120.533 	 
C 	 -89.1714 	 48.7566 	 120.097 	 
H 	 -88.3242 	 48.1648 	 120 	 
H 	 -89.4006 	 49.0869 	 119.047 	 
H 	 -90.0264 	 48.1299 	 120.359 	 
H 	 -95.3166 	 50.7977 	 124.694 	 
H 	 -87.7182 	 53.7684 	 124.665 	 
