34

S 	 -45.6583 	 24.9216 	 84.7794 	 
C 	 -46.6622 	 24.8625 	 83.3234 	 
C 	 -45.9586 	 24.8458 	 82.1387 	 
C 	 -44.5638 	 24.9877 	 82.3918 	 
C 	 -44.2273 	 25.097 	 83.7299 	 
H 	 -43.8063 	 25.0072 	 81.6143 	 
C 	 -46.4508 	 24.626 	 80.6956 	 
H 	 -46.3535 	 25.546 	 80.0872 	 
H 	 -47.4322 	 24.2429 	 80.7697 	 
C 	 -45.8293 	 23.5085 	 79.8624 	 
H 	 -46.4953 	 23.3497 	 78.9865 	 
H 	 -44.8409 	 23.6425 	 79.5442 	 
C 	 -45.8874 	 22.1504 	 80.5543 	 
H 	 -45.1416 	 22.0295 	 81.3006 	 
H 	 -46.8787 	 22.1079 	 81.0302 	 
H 	 -45.7966 	 21.3556 	 79.8507 	 
S 	 -42.6436 	 23.8229 	 85.5586 	 
C 	 -40.8783 	 24.2108 	 85.5346 	 
C 	 -40.6226 	 25.2481 	 84.6521 	 
C 	 -41.7627 	 25.7297 	 83.9355 	 
C 	 -42.922 	 25.038 	 84.3037 	 
H 	 -39.5721 	 25.6256 	 84.6007 	 
C 	 -41.7213 	 26.9291 	 83.0264 	 
H 	 -42.308 	 27.6492 	 83.5822 	 
H 	 -42.2338 	 26.6224 	 82.1239 	 
C 	 -40.3474 	 27.5395 	 82.6669 	 
H 	 -39.7992 	 27.8417 	 83.6049 	 
H 	 -40.597 	 28.3784 	 82.2059 	 
C 	 -39.4036 	 26.6068 	 81.902 	 
H 	 -39.4368 	 25.6321 	 82.3257 	 
H 	 -38.3681 	 26.9597 	 82.0901 	 
H 	 -39.8374 	 26.4966 	 80.8987 	 
H 	 -47.6962 	 24.5923 	 83.3276 	 
H 	 -40.087 	 23.7037 	 86.0475 	 
