34

S 	 38.435 	 9.33868 	 79.5799 	 
C 	 39.1435 	 7.96645 	 78.7697 	 
C 	 40.4767 	 7.7178 	 79.2214 	 
C 	 40.9088 	 8.77381 	 80.1306 	 
C 	 39.9363 	 9.71861 	 80.3843 	 
H 	 41.8675 	 8.8243 	 80.5742 	 
C 	 41.368 	 6.53078 	 78.8188 	 
H 	 41.2398 	 5.6884 	 79.4594 	 
H 	 42.4329 	 6.71283 	 78.785 	 
C 	 41.1482 	 5.98357 	 77.3445 	 
H 	 41.5561 	 4.95275 	 77.184 	 
H 	 40.0812 	 5.72827 	 77.1618 	 
C 	 41.7358 	 6.91984 	 76.3581 	 
H 	 42.6751 	 7.41226 	 76.6693 	 
H 	 41.8314 	 6.41426 	 75.3965 	 
H 	 41.1974 	 7.89426 	 76.3398 	 
S 	 39.1249 	 12.4302 	 80.6406 	 
C 	 39.7354 	 13.3467 	 82.0967 	 
C 	 40.6771 	 12.6118 	 82.6879 	 
C 	 40.854 	 11.2835 	 82.2954 	 
C 	 40.0275 	 10.9914 	 81.1661 	 
H 	 41.1883 	 13.0081 	 83.5877 	 
C 	 41.8168 	 10.4212 	 83.0536 	 
H 	 41.8047 	 9.36324 	 82.6504 	 
H 	 41.4239 	 10.4634 	 84.103 	 
C 	 43.2734 	 10.9026 	 82.8537 	 
H 	 44.0285 	 10.2564 	 83.432 	 
H 	 43.4051 	 11.7257 	 83.5536 	 
C 	 43.7363 	 11.2313 	 81.4318 	 
H 	 44.7763 	 11.5456 	 81.4998 	 
H 	 43.1093 	 12.0836 	 81.0776 	 
H 	 43.8276 	 10.4071 	 80.6875 	 
H 	 38.4681 	 7.39481 	 78.1741 	 
H 	 39.8628 	 14.4494 	 82.124 	 
