34

S 	 43.98 	 12.8958 	 86.8155 	 
C 	 45.0444 	 14.1144 	 87.5614 	 
C 	 45.6925 	 14.8578 	 86.5955 	 
C 	 45.4723 	 14.3497 	 85.2636 	 
C 	 44.59 	 13.2384 	 85.2597 	 
H 	 45.8608 	 14.7399 	 84.3894 	 
C 	 46.5872 	 15.9989 	 86.933 	 
H 	 47.5352 	 15.5904 	 87.2615 	 
H 	 46.1309 	 16.4761 	 87.7775 	 
C 	 46.6367 	 17.1064 	 85.7782 	 
H 	 47.3928 	 17.844 	 86.165 	 
H 	 46.829 	 16.7215 	 84.787 	 
C 	 45.1329 	 17.698 	 85.6372 	 
H 	 44.6639 	 18.0541 	 86.5453 	 
H 	 45.1883 	 18.6715 	 85.1641 	 
H 	 44.3986 	 17.1563 	 85.1189 	 
S 	 43.8185 	 10.7719 	 84.2424 	 
C 	 43.3451 	 10.6683 	 82.5365 	 
C 	 43.3276 	 11.8916 	 81.9272 	 
C 	 43.6988 	 13.0025 	 82.8316 	 
C 	 44.117 	 12.5222 	 84.1109 	 
H 	 43.0479 	 11.928 	 80.8912 	 
C 	 43.7689 	 14.4009 	 82.2438 	 
H 	 44.3535 	 14.2574 	 81.3926 	 
H 	 44.2407 	 15.0504 	 82.9771 	 
C 	 42.4872 	 15.0912 	 81.827 	 
H 	 41.9764 	 14.4609 	 81.1455 	 
H 	 42.747 	 15.963 	 81.2329 	 
C 	 41.427 	 15.5215 	 82.8776 	 
H 	 41.7464 	 15.207 	 83.8618 	 
H 	 40.474 	 15.1482 	 82.7886 	 
H 	 41.2133 	 16.5868 	 82.6873 	 
H 	 44.9821 	 14.2512 	 88.6282 	 
H 	 43.156 	 9.68577 	 82.1222 	 
