34

S 	 0.313235 	 -10.4525 	 65.976 	 
C 	 -0.895484 	 -9.39001 	 66.7267 	 
C 	 -1.90996 	 -10.1081 	 67.3782 	 
C 	 -1.65477 	 -11.5213 	 67.4076 	 
C 	 -0.492426 	 -11.8458 	 66.7156 	 
H 	 -2.08635 	 -12.2634 	 68.0479 	 
C 	 -3.11678 	 -9.48681 	 68.04 	 
H 	 -3.9758 	 -10.1038 	 67.8249 	 
H 	 -3.23633 	 -8.50322 	 67.562 	 
C 	 -3.14206 	 -9.25793 	 69.5948 	 
H 	 -2.28618 	 -8.62069 	 69.8589 	 
H 	 -3.99765 	 -8.70457 	 69.8523 	 
C 	 -3.22584 	 -10.5282 	 70.4286 	 
H 	 -4.12311 	 -11.0669 	 70.4767 	 
H 	 -2.46822 	 -11.2062 	 70.0836 	 
H 	 -2.95364 	 -10.241 	 71.448 	 
S 	 1.80543 	 -13.1755 	 67.134 	 
C 	 1.80122 	 -14.9113 	 67.2249 	 
C 	 0.562976 	 -15.4218 	 66.9639 	 
C 	 -0.427254 	 -14.4682 	 66.7252 	 
C 	 0.0881943 	 -13.1492 	 66.6997 	 
H 	 0.493024 	 -16.4455 	 66.9707 	 
C 	 -1.9315 	 -14.8715 	 66.5659 	 
H 	 -2.01753 	 -15.3592 	 65.5474 	 
H 	 -2.59037 	 -14.0229 	 66.503 	 
C 	 -2.4048 	 -15.8621 	 67.6887 	 
H 	 -1.81292 	 -16.7368 	 67.7498 	 
H 	 -3.37216 	 -16.251 	 67.6039 	 
C 	 -2.33021 	 -15.2754 	 69.0959 	 
H 	 -1.26352 	 -15.1189 	 69.3166 	 
H 	 -2.55412 	 -15.9826 	 69.9516 	 
H 	 -2.91283 	 -14.4067 	 69.3383 	 
H 	 -0.930833 	 -8.38498 	 66.7088 	 
H 	 2.67773 	 -15.54 	 67.3829 	 
