34

S 	 -45.5863 	 17.1426 	 83.0956 	 
C 	 -45.1773 	 15.7275 	 82.2413 	 
C 	 -44.5264 	 16.0308 	 81.0542 	 
C 	 -44.3899 	 17.4738 	 80.8211 	 
C 	 -44.9146 	 18.2262 	 81.8539 	 
H 	 -44.0319 	 18.0364 	 80.0608 	 
C 	 -44.0674 	 15.0616 	 79.979 	 
H 	 -44.4631 	 15.3871 	 79.0354 	 
H 	 -44.5676 	 14.092 	 80.2318 	 
C 	 -42.5705 	 15.0181 	 79.7542 	 
H 	 -42.3765 	 16.0836 	 79.5603 	 
H 	 -42.128 	 14.6763 	 80.6564 	 
C 	 -42.0124 	 14.068 	 78.6952 	 
H 	 -40.941 	 14.1214 	 78.6835 	 
H 	 -42.2645 	 12.9641 	 78.8425 	 
H 	 -42.36 	 14.2287 	 77.6571 	 
S 	 -46.7939 	 20.1005 	 81.8118 	 
C 	 -46.4622 	 21.8231 	 82.0166 	 
C 	 -45.1189 	 22.0157 	 81.9253 	 
C 	 -44.3533 	 20.792 	 81.9333 	 
C 	 -45.1685 	 19.649 	 81.9131 	 
H 	 -44.7659 	 22.9911 	 81.8879 	 
C 	 -42.855 	 20.8119 	 82.0328 	 
H 	 -42.5961 	 20.0935 	 82.7575 	 
H 	 -42.4563 	 21.7073 	 82.4475 	 
C 	 -42.0873 	 20.4106 	 80.6871 	 
H 	 -42.5588 	 21.0103 	 79.9335 	 
H 	 -42.4596 	 19.401 	 80.4603 	 
C 	 -40.5378 	 20.5443 	 80.5355 	 
H 	 -40.3052 	 20.7477 	 79.4837 	 
H 	 -40.0815 	 19.5929 	 80.813 	 
H 	 -40.0576 	 21.3084 	 81.1075 	 
H 	 -45.3285 	 14.7489 	 82.6516 	 
H 	 -47.2041 	 22.5772 	 82.0795 	 
