34

S 	 1.93425 	 -1.88945 	 77.6458 	 
C 	 0.460065 	 -2.80747 	 77.6397 	 
C 	 0.0648357 	 -3.05552 	 78.9773 	 
C 	 1.03361 	 -2.58635 	 79.9697 	 
C 	 2.00967 	 -1.83828 	 79.3522 	 
H 	 1.01615 	 -2.69696 	 81.0462 	 
C 	 -1.27902 	 -3.70268 	 79.3117 	 
H 	 -1.15717 	 -4.52491 	 80.0146 	 
H 	 -1.85988 	 -4.0192 	 78.4564 	 
C 	 -2.05208 	 -2.70764 	 80.1048 	 
H 	 -2.97396 	 -3.27134 	 80.4492 	 
H 	 -1.41214 	 -2.39651 	 80.9581 	 
C 	 -2.56776 	 -1.38059 	 79.3199 	 
H 	 -2.79721 	 -1.57415 	 78.2856 	 
H 	 -3.45395 	 -0.989806 	 79.8866 	 
H 	 -1.74487 	 -0.56214 	 79.2655 	 
S 	 4.23473 	 -1.91555 	 81.0029 	 
C 	 4.91617 	 -0.38793 	 81.4918 	 
C 	 4.26015 	 0.718468 	 80.9661 	 
C 	 3.11347 	 0.356767 	 80.1709 	 
C 	 3.00761 	 -1.04152 	 80.0063 	 
H 	 4.62839 	 1.6834 	 81.2766 	 
C 	 2.35587 	 1.46507 	 79.3965 	 
H 	 1.77085 	 1.04081 	 78.5678 	 
H 	 3.19481 	 1.98883 	 78.9842 	 
C 	 1.40762 	 2.43935 	 80.1837 	 
H 	 1.10254 	 3.22783 	 79.5113 	 
H 	 2.08853 	 2.89239 	 80.8464 	 
C 	 0.310951 	 1.65318 	 80.8068 	 
H 	 0.806503 	 0.860506 	 81.3423 	 
H 	 -0.374185 	 1.17223 	 80.0839 	 
H 	 -0.283053 	 2.19125 	 81.5208 	 
H 	 -0.0171831 	 -3.25258 	 76.8218 	 
H 	 5.55899 	 -0.325691 	 82.3428 	 
