34

S 	 -29.4378 	 74.8867 	 157.678 	 
C 	 -28.6962 	 75.6251 	 159.096 	 
C 	 -28.7673 	 74.7945 	 160.217 	 
C 	 -29.5512 	 73.5995 	 159.959 	 
C 	 -30.0751 	 73.5556 	 158.668 	 
H 	 -29.9209 	 72.8479 	 160.709 	 
C 	 -28.157 	 75.0806 	 161.567 	 
H 	 -27.577 	 76.001 	 161.497 	 
H 	 -27.5489 	 74.2035 	 161.885 	 
C 	 -29.1827 	 75.3938 	 162.695 	 
H 	 -29.6074 	 76.3445 	 162.504 	 
H 	 -29.937 	 74.7032 	 162.708 	 
C 	 -28.4763 	 75.4019 	 164.053 	 
H 	 -29.1621 	 75.1846 	 164.957 	 
H 	 -27.5825 	 74.8003 	 164.184 	 
H 	 -28.0787 	 76.4225 	 164.205 	 
S 	 -29.8509 	 71.3297 	 156.906 	 
C 	 -31.2803 	 70.3334 	 156.68 	 
C 	 -32.1244 	 70.5444 	 157.751 	 
C 	 -31.8887 	 71.7929 	 158.435 	 
C 	 -30.7101 	 72.382 	 158.038 	 
H 	 -33.016 	 69.9479 	 157.866 	 
C 	 -33.0114 	 72.321 	 159.34 	 
H 	 -32.7581 	 73.0984 	 160.013 	 
H 	 -33.2749 	 71.4431 	 159.99 	 
C 	 -34.3251 	 72.7468 	 158.682 	 
H 	 -35.1417 	 72.8521 	 159.434 	 
H 	 -34.6283 	 71.9027 	 158.039 	 
C 	 -34.1211 	 74.0691 	 157.813 	 
H 	 -33.582 	 74.8183 	 158.318 	 
H 	 -35.0396 	 74.2944 	 157.426 	 
H 	 -33.4894 	 73.8427 	 157.026 	 
H 	 -28.0231 	 76.4954 	 159.13 	 
H 	 -31.4898 	 69.4077 	 156.065 	 
