34

S 	 -30.2351 	 69.5479 	 102.889 	 
C 	 -28.8503 	 68.491 	 103.079 	 
C 	 -27.9064 	 68.9813 	 103.963 	 
C 	 -28.2473 	 70.264 	 104.479 	 
C 	 -29.4993 	 70.6981 	 104.035 	 
H 	 -27.6514 	 70.7145 	 105.305 	 
C 	 -26.5501 	 68.2945 	 104.27 	 
H 	 -26.409 	 67.4602 	 103.539 	 
H 	 -26.6078 	 67.8692 	 105.219 	 
C 	 -25.343 	 69.1747 	 104.12 	 
H 	 -25.3367 	 70.0532 	 104.823 	 
H 	 -24.4867 	 68.5894 	 104.568 	 
C 	 -24.9929 	 69.6782 	 102.676 	 
H 	 -24.375 	 68.9572 	 102.187 	 
H 	 -25.7945 	 70.1245 	 102.061 	 
H 	 -24.2075 	 70.4269 	 102.739 	 
S 	 -31.8505 	 72.0515 	 104.437 	 
C 	 -31.8182 	 73.6644 	 105.003 	 
C 	 -30.5563 	 74.1952 	 105.001 	 
C 	 -29.56 	 73.1742 	 104.717 	 
C 	 -30.1436 	 71.9304 	 104.466 	 
H 	 -30.3805 	 75.2663 	 105.068 	 
C 	 -28.1504 	 73.5599 	 104.372 	 
H 	 -27.3981 	 72.8629 	 104.693 	 
H 	 -28.0254 	 74.364 	 105.049 	 
C 	 -27.9597 	 73.9815 	 102.885 	 
H 	 -26.9407 	 74.1368 	 102.598 	 
H 	 -28.4524 	 74.8828 	 102.672 	 
C 	 -28.4543 	 72.8595 	 101.921 	 
H 	 -27.7795 	 71.9656 	 102.103 	 
H 	 -28.2622 	 73.1228 	 100.921 	 
H 	 -29.5341 	 72.7275 	 102.043 	 
H 	 -28.7381 	 67.5011 	 102.658 	 
H 	 -32.6447 	 74.3246 	 105.011 	 
