34

S 	 -2.71617 	 74.3754 	 50.9225 	 
C 	 -1.18827 	 74.4835 	 50.1268 	 
C 	 -0.496636 	 75.6164 	 50.4873 	 
C 	 -1.19964 	 76.3791 	 51.4357 	 
C 	 -2.36123 	 75.7687 	 51.8696 	 
H 	 -0.948677 	 77.3532 	 51.8027 	 
C 	 0.789668 	 76.0261 	 49.8454 	 
H 	 0.605646 	 77.0847 	 49.4916 	 
H 	 0.932788 	 75.6366 	 48.8739 	 
C 	 1.91219 	 75.9473 	 50.8385 	 
H 	 2.82062 	 76.4542 	 50.549 	 
H 	 1.72015 	 76.5177 	 51.7052 	 
C 	 2.35221 	 74.5123 	 51.3136 	 
H 	 3.12912 	 74.6452 	 52.018 	 
H 	 1.54385 	 73.8856 	 51.771 	 
H 	 2.53978 	 73.7976 	 50.5669 	 
S 	 -5.02743 	 75.904 	 52.5359 	 
C 	 -5.55598 	 76.7143 	 54.0226 	 
C 	 -4.47541 	 77.3872 	 54.613 	 
C 	 -3.18745 	 77.0828 	 54.0268 	 
C 	 -3.28218 	 76.2657 	 52.877 	 
H 	 -4.64236 	 78.0861 	 55.4301 	 
C 	 -1.89387 	 77.6264 	 54.5899 	 
H 	 -2.22707 	 78.2395 	 55.4413 	 
H 	 -1.4219 	 78.2696 	 53.9107 	 
C 	 -0.781368 	 76.7085 	 55.1709 	 
H 	 0.0897431 	 77.3222 	 55.3948 	 
H 	 -0.331956 	 76.0956 	 54.4037 	 
C 	 -1.28301 	 75.8032 	 56.3992 	 
H 	 -1.5447 	 76.4521 	 57.2486 	 
H 	 -0.532522 	 75.1131 	 56.6909 	 
H 	 -2.10672 	 75.1705 	 56.1934 	 
H 	 -0.91532 	 73.8294 	 49.3465 	 
H 	 -6.57123 	 76.6934 	 54.4688 	 
