34

S 	 -61.677 	 51.1405 	 123.587 	 
C 	 -62.0678 	 49.6247 	 122.879 	 
C 	 -61.04 	 49.1048 	 122.094 	 
C 	 -59.911 	 49.9925 	 122.277 	 
C 	 -60.1246 	 51.1147 	 123.082 	 
H 	 -58.9501 	 49.9492 	 121.715 	 
C 	 -61.1528 	 47.8851 	 121.159 	 
H 	 -60.9847 	 46.9157 	 121.759 	 
H 	 -60.2721 	 47.9565 	 120.51 	 
C 	 -62.4523 	 47.7545 	 120.336 	 
H 	 -63.2987 	 47.3317 	 120.921 	 
H 	 -62.7046 	 48.6948 	 119.916 	 
C 	 -62.3415 	 46.587 	 119.293 	 
H 	 -63.2433 	 46.5103 	 118.657 	 
H 	 -61.4302 	 46.6453 	 118.688 	 
H 	 -62.3122 	 45.6309 	 119.804 	 
S 	 -59.5006 	 53.8271 	 122.888 	 
C 	 -58.0544 	 54.3407 	 123.602 	 
C 	 -57.3339 	 53.4049 	 124.244 	 
C 	 -57.8619 	 52.093 	 124.035 	 
C 	 -59.1306 	 52.1431 	 123.459 	 
H 	 -56.3425 	 53.7003 	 124.695 	 
C 	 -57.1256 	 50.8876 	 124.58 	 
H 	 -57.4827 	 49.9528 	 124.234 	 
H 	 -57.2666 	 50.7855 	 125.681 	 
C 	 -55.5977 	 50.9404 	 124.381 	 
H 	 -55.1667 	 50.0024 	 124.804 	 
H 	 -54.9894 	 51.6695 	 124.883 	 
C 	 -55.2729 	 50.9954 	 122.868 	 
H 	 -56.177 	 51.237 	 122.294 	 
H 	 -54.8846 	 50.0377 	 122.598 	 
H 	 -54.4941 	 51.6841 	 122.588 	 
H 	 -63.0796 	 49.2921 	 122.791 	 
H 	 -57.7779 	 55.3741 	 123.656 	 
