34

S 	 -49.0706 	 11.3033 	 80.5514 	 
C 	 -47.7089 	 10.638 	 81.4019 	 
C 	 -46.8246 	 11.625 	 81.7477 	 
C 	 -47.3961 	 12.9218 	 81.6008 	 
C 	 -48.504 	 12.936 	 80.8185 	 
H 	 -46.9395 	 13.8793 	 81.929 	 
C 	 -45.5819 	 11.3679 	 82.6572 	 
H 	 -45.9888 	 10.8012 	 83.5434 	 
H 	 -45.2093 	 12.3175 	 83.0971 	 
C 	 -44.4457 	 10.6745 	 81.8305 	 
H 	 -43.6198 	 10.5399 	 82.5092 	 
H 	 -44.7443 	 9.60526 	 81.5253 	 
C 	 -44.0901 	 11.4924 	 80.6529 	 
H 	 -43.1676 	 11.1756 	 80.2487 	 
H 	 -44.8834 	 11.3369 	 79.8973 	 
H 	 -43.9961 	 12.5444 	 80.8939 	 
S 	 -48.382 	 15.1348 	 79.1521 	 
C 	 -49.7871 	 15.9853 	 78.5908 	 
C 	 -50.7992 	 15.6331 	 79.4364 	 
C 	 -50.5431 	 14.5697 	 80.3575 	 
C 	 -49.2264 	 14.0602 	 80.2111 	 
H 	 -51.6646 	 16.0546 	 79.1788 	 
C 	 -51.7106 	 14.0145 	 81.2678 	 
H 	 -51.6426 	 12.9714 	 81.0857 	 
H 	 -52.6252 	 14.2665 	 80.8254 	 
C 	 -51.7061 	 14.4713 	 82.7638 	 
H 	 -52.096 	 15.4968 	 82.8744 	 
H 	 -50.7755 	 14.3106 	 83.2481 	 
C 	 -52.7677 	 13.669 	 83.6461 	 
H 	 -52.795 	 14.1534 	 84.6372 	 
H 	 -52.4499 	 12.6368 	 83.6674 	 
H 	 -53.7617 	 13.6944 	 83.2263 	 
H 	 -47.525 	 9.54836 	 81.5203 	 
H 	 -49.7763 	 16.7417 	 77.8147 	 
