34

S 	 36.1384 	 23.511 	 82.0109 	 
C 	 34.7997 	 23.6 	 83.0886 	 
C 	 34.9223 	 22.9195 	 84.2914 	 
C 	 36.2548 	 22.4025 	 84.2993 	 
C 	 37.1148 	 22.7058 	 83.2384 	 
H 	 36.5625 	 21.7337 	 85.0664 	 
C 	 33.7938 	 22.6889 	 85.2709 	 
H 	 34.1829 	 22.2437 	 86.1534 	 
H 	 33.0963 	 21.9485 	 84.8291 	 
C 	 33.0519 	 23.932 	 85.7493 	 
H 	 33.7827 	 24.4452 	 86.4081 	 
H 	 32.7309 	 24.6415 	 84.944 	 
C 	 31.8471 	 23.6217 	 86.6547 	 
H 	 31.538 	 24.5466 	 87.1383 	 
H 	 30.88 	 23.3605 	 86.173 	 
H 	 32.0273 	 22.8864 	 87.4979 	 
S 	 39.3881 	 21.206 	 83.958 	 
C 	 40.9507 	 21.6316 	 83.2724 	 
C 	 40.7819 	 22.439 	 82.188 	 
C 	 39.5209 	 23.0389 	 82.1841 	 
C 	 38.5989 	 22.4967 	 83.0921 	 
H 	 41.5617 	 22.7572 	 81.4927 	 
C 	 39.2232 	 24.2396 	 81.3057 	 
H 	 38.3692 	 24.019 	 80.6297 	 
H 	 40.0216 	 24.269 	 80.6333 	 
C 	 39.0236 	 25.624 	 81.9737 	 
H 	 38.2558 	 25.5857 	 82.8553 	 
H 	 38.5815 	 26.4119 	 81.3782 	 
C 	 40.3665 	 26.1943 	 82.4031 	 
H 	 40.8498 	 26.5387 	 81.5268 	 
H 	 41.0424 	 25.536 	 82.9524 	 
H 	 40.1921 	 27.1112 	 83.0155 	 
H 	 33.883 	 24.1391 	 82.7691 	 
H 	 41.7676 	 21.0858 	 83.6279 	 
