34

S 	 -53.224 	 42.3322 	 107.989 	 
C 	 -52.7835 	 43.4472 	 109.271 	 
C 	 -53.2698 	 44.725 	 109.067 	 
C 	 -54.1978 	 44.7086 	 108.01 	 
C 	 -54.2211 	 43.5539 	 107.23 	 
H 	 -54.7429 	 45.5396 	 107.651 	 
C 	 -52.9437 	 45.9252 	 109.874 	 
H 	 -52.5623 	 45.5842 	 110.791 	 
H 	 -53.8398 	 46.4252 	 110.187 	 
C 	 -51.9687 	 46.9776 	 109.144 	 
H 	 -51.1936 	 46.4468 	 108.661 	 
H 	 -52.4508 	 47.5043 	 108.345 	 
C 	 -51.3132 	 47.978 	 110.108 	 
H 	 -51.9686 	 48.687 	 110.641 	 
H 	 -50.7012 	 47.5012 	 110.812 	 
H 	 -50.7341 	 48.573 	 109.505 	 
S 	 -54.5673 	 43.2818 	 104.509 	 
C 	 -56.1056 	 42.819 	 103.859 	 
C 	 -57.0167 	 42.6044 	 104.907 	 
C 	 -56.4692 	 42.8668 	 106.21 	 
C 	 -55.1134 	 43.2505 	 106.129 	 
H 	 -58.0529 	 42.3126 	 104.765 	 
C 	 -57.3104 	 42.8465 	 107.486 	 
H 	 -57.6298 	 43.8608 	 107.462 	 
H 	 -56.7337 	 42.667 	 108.406 	 
C 	 -58.6146 	 42.0048 	 107.436 	 
H 	 -58.6947 	 41.6811 	 108.443 	 
H 	 -58.506 	 41.1178 	 106.778 	 
C 	 -59.8582 	 42.7956 	 106.991 	 
H 	 -60.0112 	 42.9984 	 105.967 	 
H 	 -59.7973 	 43.829 	 107.457 	 
H 	 -60.7519 	 42.3047 	 107.231 	 
H 	 -52.1201 	 43.2268 	 110.137 	 
H 	 -56.3191 	 42.7495 	 102.86 	 
