34

S 	 -53.6512 	 39.6477 	 104.481 	 
C 	 -53.5794 	 41.3508 	 104.145 	 
C 	 -53.4673 	 42.033 	 105.307 	 
C 	 -53.3933 	 41.1382 	 106.458 	 
C 	 -53.4431 	 39.8451 	 106.201 	 
H 	 -53.2217 	 41.5317 	 107.538 	 
C 	 -53.4962 	 43.5651 	 105.422 	 
H 	 -53.8719 	 43.8738 	 106.414 	 
H 	 -54.2803 	 43.9912 	 104.757 	 
C 	 -52.115 	 44.2129 	 105.127 	 
H 	 -51.3757 	 43.6427 	 105.646 	 
H 	 -51.9724 	 44.0619 	 104.063 	 
C 	 -51.9511 	 45.632 	 105.57 	 
H 	 -50.9878 	 46.0405 	 105.142 	 
H 	 -52.7249 	 46.2182 	 105.109 	 
H 	 -51.9298 	 45.6358 	 106.694 	 
S 	 -54.4587 	 37.6012 	 107.331 	 
C 	 -53.5242 	 36.535 	 108.377 	 
C 	 -52.2606 	 37.0412 	 108.504 	 
C 	 -52.0256 	 38.247 	 107.717 	 
C 	 -53.2273 	 38.7138 	 107.089 	 
H 	 -51.612 	 36.3641 	 109.049 	 
C 	 -50.7312 	 38.9333 	 107.645 	 
H 	 -50.9362 	 40.0024 	 107.798 	 
H 	 -50.4287 	 38.8624 	 106.633 	 
C 	 -49.6553 	 38.5478 	 108.624 	 
H 	 -48.7094 	 38.9346 	 108.208 	 
H 	 -49.646 	 37.4467 	 108.837 	 
C 	 -49.8325 	 39.0826 	 110.049 	 
H 	 -50.7525 	 38.6081 	 110.487 	 
H 	 -50.077 	 40.0996 	 110.112 	 
H 	 -49.0044 	 38.7942 	 110.756 	 
H 	 -53.7066 	 41.8445 	 103.195 	 
H 	 -53.9805 	 35.6294 	 108.833 	 
