34

S 	 -32.5158 	 59.5248 	 108.286 	 
C 	 -31.0248 	 60.1922 	 107.761 	 
C 	 -30.2784 	 59.2413 	 107.137 	 
C 	 -30.9512 	 57.9708 	 107.075 	 
C 	 -32.2479 	 57.98 	 107.591 	 
H 	 -30.493 	 57.0994 	 106.552 	 
C 	 -28.9209 	 59.4595 	 106.582 	 
H 	 -28.2356 	 58.7278 	 106.975 	 
H 	 -28.5404 	 60.4352 	 106.815 	 
C 	 -28.826 	 59.3193 	 105.032 	 
H 	 -28.9846 	 58.2964 	 104.746 	 
H 	 -29.5081 	 59.9143 	 104.421 	 
C 	 -27.3846 	 59.5435 	 104.458 	 
H 	 -27.1287 	 60.5958 	 104.214 	 
H 	 -26.6382 	 59.2055 	 105.15 	 
H 	 -27.3214 	 58.9128 	 103.598 	 
S 	 -34.8955 	 57.2344 	 107.306 	 
C 	 -35.3901 	 55.7163 	 107.815 	 
C 	 -34.3251 	 54.8945 	 108.165 	 
C 	 -33.0775 	 55.5774 	 108.102 	 
C 	 -33.2231 	 56.8893 	 107.668 	 
H 	 -34.4844 	 53.987 	 108.634 	 
C 	 -31.8183 	 54.9317 	 108.406 	 
H 	 -31.9663 	 54.1925 	 109.178 	 
H 	 -31.1335 	 55.6692 	 108.834 	 
C 	 -31.0293 	 54.3235 	 107.198 	 
H 	 -31.0488 	 55.0325 	 106.358 	 
H 	 -31.4141 	 53.4228 	 106.729 	 
C 	 -29.5841 	 53.9402 	 107.547 	 
H 	 -29.5112 	 53.6248 	 108.509 	 
H 	 -28.9986 	 54.8176 	 107.565 	 
H 	 -29.1459 	 53.2028 	 106.836 	 
H 	 -30.7618 	 61.196 	 107.841 	 
H 	 -36.4393 	 55.3626 	 107.82 	 
