34

S 	 12.1595 	 -6.41798 	 64.7152 	 
C 	 11.3698 	 -5.324 	 63.6466 	 
C 	 11.3316 	 -4.04157 	 64.1891 	 
C 	 11.879 	 -3.92853 	 65.5026 	 
C 	 12.2623 	 -5.20209 	 65.997 	 
H 	 11.9731 	 -3.0658 	 66.1122 	 
C 	 10.8111 	 -2.77014 	 63.4923 	 
H 	 10.0176 	 -2.42407 	 64.1308 	 
H 	 10.2368 	 -3.19526 	 62.6414 	 
C 	 11.8652 	 -1.66541 	 63.2198 	 
H 	 12.1813 	 -1.09849 	 64.1097 	 
H 	 12.7912 	 -2.12536 	 62.9027 	 
C 	 11.3066 	 -0.740915 	 62.1402 	 
H 	 12.2124 	 -0.243274 	 61.7937 	 
H 	 10.8308 	 -1.31802 	 61.2962 	 
H 	 10.5742 	 0.00552428 	 62.4657 	 
S 	 14.6445 	 -5.8174 	 67.2002 	 
C 	 14.6743 	 -6.02963 	 68.9671 	 
C 	 13.4821 	 -5.62636 	 69.5166 	 
C 	 12.5151 	 -5.17292 	 68.5521 	 
C 	 12.9567 	 -5.36427 	 67.2618 	 
H 	 13.3811 	 -5.62477 	 70.5688 	 
C 	 11.0585 	 -4.73696 	 68.8841 	 
H 	 10.5061 	 -4.38445 	 68.0241 	 
H 	 11.0265 	 -3.81282 	 69.5045 	 
C 	 10.1741 	 -5.71588 	 69.6732 	 
H 	 9.17123 	 -5.36874 	 69.9471 	 
H 	 10.6519 	 -5.85744 	 70.6422 	 
C 	 9.92861 	 -7.09761 	 69.0137 	 
H 	 10.0098 	 -7.82228 	 69.7269 	 
H 	 10.5984 	 -7.40875 	 68.2685 	 
H 	 9.01103 	 -7.11457 	 68.5906 	 
H 	 10.8761 	 -5.65394 	 62.7048 	 
H 	 15.5222 	 -6.44745 	 69.4765 	 
