34

S 	 -50.4077 	 58.3162 	 130.546 	 
C 	 -49.8582 	 58.1426 	 128.933 	 
C 	 -50.38 	 59.0721 	 128.064 	 
C 	 -50.8792 	 60.1712 	 128.868 	 
C 	 -50.9513 	 59.9089 	 130.205 	 
H 	 -51.3101 	 61.078 	 128.552 	 
C 	 -50.0282 	 59.103 	 126.612 	 
H 	 -51.0075 	 59.0631 	 126.043 	 
H 	 -49.4404 	 58.1565 	 126.408 	 
C 	 -49.212 	 60.2728 	 126.057 	 
H 	 -49.8212 	 61.1636 	 126.018 	 
H 	 -48.381 	 60.5196 	 126.684 	 
C 	 -48.5948 	 59.9841 	 124.681 	 
H 	 -48.0128 	 60.8022 	 124.38 	 
H 	 -48.0049 	 59.0847 	 124.796 	 
H 	 -49.2708 	 59.8141 	 123.892 	 
S 	 -52.453 	 60.1551 	 132.451 	 
C 	 -52.7826 	 61.7842 	 133.003 	 
C 	 -52.2447 	 62.8104 	 132.24 	 
C 	 -51.4814 	 62.2886 	 131.169 	 
C 	 -51.4877 	 60.8982 	 131.197 	 
H 	 -52.4077 	 63.8606 	 132.43 	 
C 	 -50.757 	 63.1256 	 130.203 	 
H 	 -51.4487 	 63.4919 	 129.438 	 
H 	 -50.018 	 62.5326 	 129.689 	 
C 	 -49.8555 	 64.2686 	 130.811 	 
H 	 -50.4136 	 65.0835 	 131.277 	 
H 	 -49.4561 	 64.6915 	 129.832 	 
C 	 -48.6717 	 63.8901 	 131.792 	 
H 	 -48.5466 	 62.7865 	 131.859 	 
H 	 -48.7986 	 64.1065 	 132.797 	 
H 	 -47.7807 	 64.3906 	 131.547 	 
H 	 -49.2124 	 57.3507 	 128.558 	 
H 	 -53.41 	 61.9763 	 133.875 	 
