34

S 	 34.9806 	 -5.35292 	 70.6692 	 
C 	 35.857 	 -4.37563 	 71.8681 	 
C 	 37.2037 	 -4.2906 	 71.6335 	 
C 	 37.4903 	 -4.95097 	 70.3771 	 
C 	 36.4464 	 -5.55768 	 69.7413 	 
H 	 38.4329 	 -5.12836 	 69.9586 	 
C 	 38.1699 	 -3.39437 	 72.3531 	 
H 	 39.1251 	 -3.63966 	 71.9981 	 
H 	 38.2189 	 -3.68046 	 73.4296 	 
C 	 38.0424 	 -1.84884 	 72.3323 	 
H 	 37.9041 	 -1.48323 	 71.2954 	 
H 	 37.0377 	 -1.61919 	 72.7156 	 
C 	 39.119 	 -1.10662 	 73.082 	 
H 	 39.0864 	 -0.0511031 	 72.8636 	 
H 	 39.3863 	 -1.28115 	 74.1536 	 
H 	 40.0139 	 -1.42039 	 72.5013 	 
S 	 35.6578 	 -8.14147 	 68.8453 	 
C 	 35.8257 	 -8.52574 	 67.1771 	 
C 	 36.447 	 -7.49062 	 66.4731 	 
C 	 36.855 	 -6.37959 	 67.2981 	 
C 	 36.3327 	 -6.49492 	 68.5989 	 
H 	 36.7268 	 -7.6991 	 65.5042 	 
C 	 37.5951 	 -5.1588 	 66.8287 	 
H 	 38.4129 	 -5.29579 	 66.2402 	 
H 	 38.1399 	 -4.82699 	 67.7562 	 
C 	 36.7749 	 -4.06361 	 66.1762 	 
H 	 35.902 	 -3.834 	 66.8205 	 
H 	 36.3195 	 -4.31864 	 65.2256 	 
C 	 37.433 	 -2.66354 	 65.9268 	 
H 	 38.3393 	 -2.84525 	 65.3601 	 
H 	 37.7386 	 -2.19143 	 66.7959 	 
H 	 36.8617 	 -1.98385 	 65.3154 	 
H 	 35.3679 	 -3.93355 	 72.7149 	 
H 	 35.5605 	 -9.50515 	 66.7927 	 
