34

S 	 5.70692 	 -15.5711 	 49.4551 	 
C 	 4.13948 	 -16.3419 	 49.3803 	 
C 	 3.63387 	 -16.5734 	 50.6473 	 
C 	 4.38601 	 -16.0084 	 51.7212 	 
C 	 5.57988 	 -15.4885 	 51.233 	 
H 	 4.16605 	 -16.1031 	 52.7407 	 
C 	 2.28113 	 -17.2892 	 50.8439 	 
H 	 2.43935 	 -18.0965 	 51.5285 	 
H 	 2.06145 	 -17.7625 	 49.8612 	 
C 	 1.15591 	 -16.5047 	 51.3006 	 
H 	 0.224018 	 -17.0555 	 51.353 	 
H 	 1.28251 	 -16.1139 	 52.3808 	 
C 	 0.945388 	 -15.2623 	 50.4036 	 
H 	 0.663951 	 -15.5822 	 49.4739 	 
H 	 0.175252 	 -14.6397 	 50.7163 	 
H 	 1.80565 	 -14.5656 	 50.3566 	 
S 	 7.1521 	 -16.1753 	 53.2969 	 
C 	 8.35673 	 -15.025 	 53.938 	 
C 	 8.14073 	 -13.802 	 53.4265 	 
C 	 7.24821 	 -13.8662 	 52.3313 	 
C 	 6.58742 	 -15.0265 	 52.1573 	 
H 	 8.68993 	 -12.9885 	 53.6731 	 
C 	 7.01395 	 -12.6324 	 51.3894 	 
H 	 6.26673 	 -12.8594 	 50.5735 	 
H 	 7.93291 	 -12.4755 	 50.9288 	 
C 	 6.59273 	 -11.307 	 52.0086 	 
H 	 7.21811 	 -11.0478 	 52.804 	 
H 	 5.59423 	 -11.4898 	 52.4454 	 
C 	 6.52277 	 -10.1672 	 51.0447 	 
H 	 7.45852 	 -9.7646 	 50.671 	 
H 	 5.922 	 -9.34873 	 51.4321 	 
H 	 5.92707 	 -10.3872 	 50.2764 	 
H 	 3.68422 	 -16.7541 	 48.5206 	 
H 	 9.12489 	 -15.2768 	 54.5727 	 
