34

S 	 -92.4992 	 42.7363 	 117.935 	 
C 	 -91.7896 	 41.1317 	 118.119 	 
C 	 -90.6257 	 41.0282 	 117.415 	 
C 	 -90.3075 	 42.2469 	 116.692 	 
C 	 -91.2073 	 43.2963 	 116.946 	 
H 	 -89.569 	 42.3572 	 115.9 	 
C 	 -89.7398 	 39.7834 	 117.182 	 
H 	 -89.7965 	 39.2768 	 116.257 	 
H 	 -89.9395 	 39.0325 	 117.95 	 
C 	 -88.3087 	 40.1056 	 117.391 	 
H 	 -87.9048 	 40.7648 	 116.638 	 
H 	 -88.2624 	 40.6849 	 118.269 	 
C 	 -87.3876 	 38.8926 	 117.666 	 
H 	 -86.4521 	 39.3136 	 118.116 	 
H 	 -87.8019 	 38.2313 	 118.437 	 
H 	 -87.1265 	 38.3187 	 116.801 	 
S 	 -92.382 	 45.379 	 115.556 	 
C 	 -91.5004 	 46.9061 	 115.461 	 
C 	 -90.2208 	 46.7731 	 116.002 	 
C 	 -90.093 	 45.5572 	 116.733 	 
C 	 -91.0774 	 44.6523 	 116.448 	 
H 	 -89.57 	 47.5666 	 116.028 	 
C 	 -88.8396 	 45.1598 	 117.578 	 
H 	 -87.9699 	 45.7107 	 117.201 	 
H 	 -88.5245 	 44.1525 	 117.363 	 
C 	 -88.9236 	 45.354 	 119.11 	 
H 	 -89.896 	 44.8889 	 119.448 	 
H 	 -88.9621 	 46.43 	 119.381 	 
C 	 -87.7572 	 44.8607 	 119.976 	 
H 	 -86.8268 	 45.2042 	 119.621 	 
H 	 -87.7163 	 43.7332 	 120.115 	 
H 	 -87.7373 	 45.2617 	 120.921 	 
H 	 -92.1264 	 40.3435 	 118.844 	 
H 	 -91.8257 	 47.834 	 114.951 	 
