34

S 	 -109.16 	 39.335 	 128.063 	 
C 	 -107.656 	 38.8134 	 128.742 	 
C 	 -106.628 	 38.8592 	 127.826 	 
C 	 -107.079 	 39.3445 	 126.591 	 
C 	 -108.465 	 39.7061 	 126.536 	 
H 	 -106.445 	 39.5259 	 125.714 	 
C 	 -105.297 	 38.2578 	 128.032 	 
H 	 -105.235 	 37.3587 	 127.539 	 
H 	 -105.189 	 37.9384 	 129.06 	 
C 	 -104.15 	 39.3142 	 127.693 	 
H 	 -103.2 	 38.8623 	 127.787 	 
H 	 -104.189 	 39.8633 	 126.723 	 
C 	 -104.04 	 40.3736 	 128.678 	 
H 	 -104.956 	 40.9671 	 128.837 	 
H 	 -103.832 	 39.8349 	 129.658 	 
H 	 -103.264 	 41.0764 	 128.411 	 
S 	 -108.207 	 41.7329 	 124.777 	 
C 	 -109.443 	 42.021 	 123.53 	 
C 	 -110.431 	 41.1398 	 123.7 	 
C 	 -110.274 	 40.1591 	 124.714 	 
C 	 -109.078 	 40.3303 	 125.398 	 
H 	 -111.322 	 41.1067 	 123.109 	 
C 	 -111.35 	 39.1405 	 125.002 	 
H 	 -112.242 	 39.6675 	 125.266 	 
H 	 -111.108 	 38.6213 	 125.884 	 
C 	 -111.658 	 38.1398 	 123.918 	 
H 	 -110.745 	 37.6206 	 123.563 	 
H 	 -111.993 	 38.6084 	 123.007 	 
C 	 -112.606 	 37.0372 	 124.467 	 
H 	 -112.399 	 36.7449 	 125.509 	 
H 	 -112.63 	 36.1711 	 123.788 	 
H 	 -113.635 	 37.3465 	 124.524 	 
H 	 -107.654 	 38.4466 	 129.737 	 
H 	 -109.521 	 42.8558 	 122.888 	 
