34

S 	 -33.4905 	 28.6513 	 43.7088 	 
C 	 -32.0706 	 27.7498 	 44.3677 	 
C 	 -31.7678 	 28.1227 	 45.6965 	 
C 	 -32.497 	 29.2909 	 46.0936 	 
C 	 -33.4474 	 29.6792 	 45.1383 	 
H 	 -32.457 	 29.6904 	 47.1641 	 
C 	 -30.8856 	 27.4046 	 46.7601 	 
H 	 -30.1799 	 26.6463 	 46.2912 	 
H 	 -31.5301 	 27.131 	 47.6338 	 
C 	 -29.8477 	 28.2885 	 47.5007 	 
H 	 -30.245 	 29.1341 	 48.1107 	 
H 	 -29.3099 	 27.7146 	 48.206 	 
C 	 -28.735 	 28.9228 	 46.5142 	 
H 	 -28.3072 	 28.0764 	 45.9235 	 
H 	 -29.1323 	 29.6085 	 45.7632 	 
H 	 -27.8448 	 29.4082 	 46.9791 	 
S 	 -35.7983 	 30.5276 	 46.312 	 
C 	 -36.5723 	 32.0058 	 45.7371 	 
C 	 -35.7787 	 32.7313 	 44.8773 	 
C 	 -34.5294 	 31.967 	 44.6028 	 
C 	 -34.4007 	 30.7767 	 45.2994 	 
H 	 -36.0847 	 33.6337 	 44.3958 	 
C 	 -33.6016 	 32.3435 	 43.413 	 
H 	 -34.0756 	 32.0329 	 42.5315 	 
H 	 -32.7922 	 31.652 	 43.4061 	 
C 	 -33.199 	 33.792 	 43.3004 	 
H 	 -34.0732 	 34.4377 	 43.0376 	 
H 	 -32.4432 	 33.863 	 42.4607 	 
C 	 -32.4456 	 34.2908 	 44.5016 	 
H 	 -31.5167 	 33.7549 	 44.6198 	 
H 	 -32.9801 	 34.0474 	 45.3509 	 
H 	 -32.3449 	 35.354 	 44.5167 	 
H 	 -31.5464 	 26.9328 	 43.8926 	 
H 	 -37.5753 	 32.3065 	 46.1436 	 
