34

S 	 -38.4393 	 22.6155 	 77.484 	 
C 	 -37.1308 	 22.8226 	 78.6493 	 
C 	 -37.0418 	 24.1022 	 79.0706 	 
C 	 -37.9783 	 24.9299 	 78.4136 	 
C 	 -38.9282 	 24.2893 	 77.5793 	 
H 	 -38.0304 	 26.0518 	 78.5142 	 
C 	 -36.0728 	 24.6988 	 80.0652 	 
H 	 -35.1394 	 24.2813 	 79.7767 	 
H 	 -36.3395 	 24.1878 	 81.0101 	 
C 	 -36.2083 	 26.2043 	 80.391 	 
H 	 -36.1675 	 26.8079 	 79.4295 	 
H 	 -37.2375 	 26.3692 	 80.8293 	 
C 	 -35.0925 	 26.7349 	 81.3156 	 
H 	 -34.103 	 26.2571 	 81.0092 	 
H 	 -35.0207 	 27.7955 	 81.4639 	 
H 	 -35.311 	 26.3694 	 82.2869 	 
S 	 -40.9714 	 26.1621 	 77.1026 	 
C 	 -41.4407 	 26.5172 	 75.4575 	 
C 	 -40.6697 	 25.8463 	 74.5523 	 
C 	 -39.7832 	 24.9299 	 75.1516 	 
C 	 -39.8071 	 24.9687 	 76.594 	 
H 	 -40.778 	 26.1701 	 73.5746 	 
C 	 -38.7559 	 24.2294 	 74.2697 	 
H 	 -39.3195 	 23.7635 	 73.4227 	 
H 	 -38.1825 	 23.4633 	 74.8213 	 
C 	 -37.6459 	 25.2509 	 73.7277 	 
H 	 -38.0929 	 26.0357 	 73.1259 	 
H 	 -37.0447 	 24.6819 	 73.0051 	 
C 	 -36.8009 	 25.9526 	 74.8094 	 
H 	 -37.4318 	 26.4375 	 75.5339 	 
H 	 -36.3313 	 26.7612 	 74.2868 	 
H 	 -36.0584 	 25.3588 	 75.2919 	 
H 	 -36.4292 	 22.0106 	 79.051 	 
H 	 -42.145 	 27.3292 	 75.3421 	 
