34

S 	 -43.5306 	 46.7038 	 104.164 	 
C 	 -43.0752 	 45.9637 	 105.689 	 
C 	 -43.2736 	 44.5629 	 105.677 	 
C 	 -43.9827 	 44.1539 	 104.484 	 
C 	 -44.2642 	 45.1767 	 103.626 	 
H 	 -44.3525 	 43.1557 	 104.315 	 
C 	 -43.0949 	 43.6876 	 106.817 	 
H 	 -43.0644 	 42.5875 	 106.629 	 
H 	 -44.0739 	 43.8464 	 107.34 	 
C 	 -41.9239 	 43.9399 	 107.78 	 
H 	 -41.9686 	 44.989 	 108.101 	 
H 	 -41.9356 	 43.3485 	 108.711 	 
C 	 -40.5923 	 43.5995 	 107.088 	 
H 	 -39.7468 	 43.5645 	 107.76 	 
H 	 -40.5509 	 42.62 	 106.604 	 
H 	 -40.2159 	 44.3955 	 106.456 	 
S 	 -43.5633 	 44.404 	 101.126 	 
C 	 -44.5761 	 44.7711 	 99.761 	 
C 	 -45.7971 	 45.237 	 100.133 	 
C 	 -45.8158 	 45.3725 	 101.542 	 
C 	 -44.6765 	 44.9693 	 102.245 	 
H 	 -46.6198 	 45.5758 	 99.5011 	 
C 	 -47.0834 	 45.8589 	 102.303 	 
H 	 -47.2242 	 46.8931 	 102.127 	 
H 	 -46.8016 	 45.8664 	 103.336 	 
C 	 -48.4309 	 45.1497 	 102.06 	 
H 	 -48.5668 	 45.1496 	 100.94 	 
H 	 -49.2799 	 45.6907 	 102.332 	 
C 	 -48.4494 	 43.6794 	 102.57 	 
H 	 -47.8976 	 42.99 	 101.976 	 
H 	 -49.5291 	 43.3787 	 102.674 	 
H 	 -48.1485 	 43.5987 	 103.601 	 
H 	 -42.6792 	 46.4936 	 106.508 	 
H 	 -44.2768 	 44.6263 	 98.7307 	 
