34

S 	 9.71742 	 22.5704 	 52.1374 	 
C 	 10.7699 	 21.6897 	 53.1776 	 
C 	 12.0291 	 21.4762 	 52.6495 	 
C 	 12.1573 	 21.891 	 51.345 	 
C 	 11.0343 	 22.5889 	 50.8978 	 
H 	 13.0072 	 21.5437 	 50.7567 	 
C 	 13.2061 	 20.8076 	 53.4468 	 
H 	 13.0424 	 20.9607 	 54.4928 	 
H 	 14.1139 	 21.3699 	 53.2609 	 
C 	 13.4965 	 19.3273 	 53.2256 	 
H 	 12.6625 	 18.6596 	 53.5038 	 
H 	 13.6271 	 19.1026 	 52.1615 	 
C 	 14.5919 	 18.818 	 54.1466 	 
H 	 14.3045 	 18.896 	 55.2106 	 
H 	 14.8908 	 17.8323 	 53.9105 	 
H 	 15.4699 	 19.5337 	 54.0977 	 
S 	 9.2198 	 22.3279 	 48.8455 	 
C 	 9.67513 	 22.8127 	 47.1906 	 
C 	 10.9006 	 23.3983 	 47.2016 	 
C 	 11.5036 	 23.3452 	 48.4886 	 
C 	 10.7289 	 22.8487 	 49.4902 	 
H 	 11.2853 	 23.8273 	 46.2227 	 
C 	 12.8991 	 23.9684 	 48.743 	 
H 	 13.6797 	 23.2951 	 48.3401 	 
H 	 13.0437 	 24.0312 	 49.8403 	 
C 	 13.0458 	 25.3998 	 48.1106 	 
H 	 12.2663 	 26.0972 	 48.4825 	 
H 	 13.1128 	 25.2952 	 46.963 	 
C 	 14.2518 	 26.2021 	 48.6076 	 
H 	 14.2225 	 26.8008 	 49.5705 	 
H 	 14.4684 	 26.8503 	 47.7688 	 
H 	 15.1901 	 25.6447 	 48.5722 	 
H 	 10.4376 	 21.4758 	 54.2172 	 
H 	 9.10689 	 22.8903 	 46.2898 	 
