34

S 	 -3.42697 	 13.5649 	 86.4249 	 
C 	 -5.12833 	 13.1982 	 86.7417 	 
C 	 -5.80657 	 14.2207 	 87.4003 	 
C 	 -4.88515 	 15.1563 	 87.847 	 
C 	 -3.55542 	 14.9148 	 87.5355 	 
H 	 -5.15812 	 15.9958 	 88.4629 	 
C 	 -7.29507 	 14.2237 	 87.7901 	 
H 	 -7.93525 	 13.8365 	 87.0035 	 
H 	 -7.61622 	 15.2247 	 88.0558 	 
C 	 -7.58911 	 13.6152 	 89.1481 	 
H 	 -8.66189 	 13.6165 	 89.2813 	 
H 	 -7.39657 	 12.5474 	 89.194 	 
C 	 -6.93801 	 14.2842 	 90.4414 	 
H 	 -7.23502 	 13.8302 	 91.3959 	 
H 	 -5.88786 	 14.3209 	 90.4335 	 
H 	 -7.21203 	 15.3342 	 90.4194 	 
S 	 -1.36486 	 16.4409 	 86.6196 	 
C 	 -0.549065 	 17.464 	 87.7491 	 
C 	 -0.885496 	 17.1592 	 89.022 	 
C 	 -2.00156 	 16.2634 	 89.1323 	 
C 	 -2.44947 	 15.7946 	 87.8895 	 
H 	 -0.409194 	 17.6932 	 89.8158 	 
C 	 -2.63656 	 15.9214 	 90.5053 	 
H 	 -3.63147 	 15.6058 	 90.2922 	 
H 	 -2.51322 	 16.805 	 91.1087 	 
C 	 -1.92164 	 14.751 	 91.1509 	 
H 	 -1.83959 	 13.9424 	 90.4501 	 
H 	 -2.48614 	 14.2257 	 91.971 	 
C 	 -0.47813 	 15.0198 	 91.5845 	 
H 	 -0.0744632 	 14.0684 	 91.906 	 
H 	 -0.279194 	 15.7214 	 92.4186 	 
H 	 0.218311 	 15.2398 	 90.7198 	 
H 	 -5.60006 	 12.2793 	 86.4094 	 
H 	 0.375091 	 17.9293 	 87.4119 	 
