34

S 	 -40.2812 	 -1.28979 	 97.644 	 
C 	 -38.6219 	 -1.14829 	 98.1663 	 
C 	 -37.9029 	 -0.389245 	 97.233 	 
C 	 -38.6462 	 -0.169073 	 96.0214 	 
C 	 -39.9777 	 -0.504944 	 96.0844 	 
H 	 -38.2997 	 0.322378 	 95.1179 	 
C 	 -36.4818 	 0.102773 	 97.4551 	 
H 	 -36.0027 	 0.371527 	 96.4896 	 
H 	 -35.7687 	 -0.587931 	 97.9423 	 
C 	 -36.4364 	 1.37941 	 98.3803 	 
H 	 -37.0203 	 2.23022 	 98.0242 	 
H 	 -36.7552 	 1.1714 	 99.3953 	 
C 	 -34.993 	 1.89308 	 98.4722 	 
H 	 -34.4487 	 1.94203 	 97.5491 	 
H 	 -34.9574 	 2.90191 	 98.9753 	 
H 	 -34.4749 	 1.25402 	 99.2235 	 
S 	 -41.9203 	 1.31449 	 95.4631 	 
C 	 -42.6299 	 1.28932 	 93.8431 	 
C 	 -42.0926 	 0.263863 	 93.1081 	 
C 	 -41.0902 	 -0.51747 	 93.7379 	 
C 	 -40.9805 	 -0.123836 	 95.079 	 
H 	 -42.3933 	 0.119928 	 92.0677 	 
C 	 -40.4066 	 -1.69083 	 93.0043 	 
H 	 -39.6077 	 -2.04636 	 93.6427 	 
H 	 -39.9127 	 -1.30791 	 92.0847 	 
C 	 -41.4015 	 -2.8108 	 92.6075 	 
H 	 -40.8555 	 -3.52437 	 91.9519 	 
H 	 -42.2116 	 -2.40753 	 91.9734 	 
C 	 -42.0696 	 -3.4365 	 93.8681 	 
H 	 -42.6527 	 -2.73309 	 94.3762 	 
H 	 -41.3825 	 -3.88167 	 94.6742 	 
H 	 -42.8412 	 -4.14069 	 93.5872 	 
H 	 -38.2531 	 -1.24369 	 99.218 	 
H 	 -43.3473 	 2.05379 	 93.5087 	 
