34

S 	 -6.78851 	 59.8173 	 47.4493 	 
C 	 -7.90416 	 59.5321 	 48.7824 	 
C 	 -7.48543 	 58.4948 	 49.5798 	 
C 	 -6.42339 	 57.7378 	 48.9974 	 
C 	 -5.93293 	 58.3848 	 47.8546 	 
H 	 -5.9971 	 56.8875 	 49.4765 	 
C 	 -8.08677 	 58.3199 	 50.9352 	 
H 	 -7.97831 	 57.3137 	 51.2725 	 
H 	 -9.15755 	 58.4421 	 51.0086 	 
C 	 -7.55756 	 59.2816 	 52.0204 	 
H 	 -6.50384 	 59.1659 	 52.1312 	 
H 	 -7.68027 	 60.3086 	 51.7224 	 
C 	 -8.3063 	 59.0266 	 53.3793 	 
H 	 -7.88193 	 59.7254 	 54.1487 	 
H 	 -9.3496 	 59.1621 	 53.3735 	 
H 	 -8.17945 	 57.9794 	 53.6842 	 
S 	 -5.22179 	 57.6489 	 45.226 	 
C 	 -3.7152 	 56.8312 	 44.932 	 
C 	 -2.94941 	 56.7982 	 46.0766 	 
C 	 -3.61799 	 57.2588 	 47.2463 	 
C 	 -4.92327 	 57.8199 	 46.9889 	 
H 	 -1.99346 	 56.3261 	 46.2904 	 
C 	 -2.92518 	 57.2739 	 48.5957 	 
H 	 -1.99819 	 56.701 	 48.5483 	 
H 	 -3.56299 	 56.6978 	 49.3246 	 
C 	 -2.46656 	 58.6929 	 49.1023 	 
H 	 -3.38062 	 59.2651 	 49.1881 	 
H 	 -1.75289 	 59.0658 	 48.363 	 
C 	 -1.65314 	 58.8031 	 50.3798 	 
H 	 -2.24868 	 58.2339 	 51.1349 	 
H 	 -1.37011 	 59.7814 	 50.6049 	 
H 	 -0.795476 	 58.1528 	 50.289 	 
H 	 -8.73494 	 60.137 	 49.0379 	 
H 	 -3.30715 	 56.4317 	 44.0571 	 
