34

S 	 -41.3486 	 56.2836 	 106.715 	 
C 	 -42.9086 	 56.8232 	 107.391 	 
C 	 -42.8812 	 58.2198 	 107.55 	 
C 	 -41.6318 	 58.7843 	 107.175 	 
C 	 -40.6854 	 57.8358 	 106.816 	 
H 	 -41.3973 	 59.8864 	 107.318 	 
C 	 -43.984 	 58.9823 	 108.036 	 
H 	 -44.8711 	 58.3503 	 107.934 	 
H 	 -44.1723 	 59.7149 	 107.268 	 
C 	 -43.874 	 59.5653 	 109.475 	 
H 	 -43.8119 	 58.7469 	 110.158 	 
H 	 -42.9122 	 60.0838 	 109.622 	 
C 	 -45.0893 	 60.5063 	 109.966 	 
H 	 -45.9828 	 59.8385 	 109.951 	 
H 	 -44.8872 	 60.7508 	 110.992 	 
H 	 -45.407 	 61.3384 	 109.303 	 
S 	 -38.3564 	 59.1506 	 107.518 	 
C 	 -36.985 	 59.2252 	 106.351 	 
C 	 -37.3405 	 58.4952 	 105.209 	 
C 	 -38.6645 	 57.9075 	 105.215 	 
C 	 -39.3332 	 58.1886 	 106.426 	 
H 	 -36.7313 	 58.5454 	 104.285 	 
C 	 -39.3035 	 57.0693 	 104.07 	 
H 	 -39.8547 	 56.3925 	 104.653 	 
H 	 -38.4352 	 56.5536 	 103.626 	 
C 	 -40.0712 	 57.7893 	 102.907 	 
H 	 -39.3112 	 57.969 	 102.166 	 
H 	 -40.4807 	 58.6918 	 103.311 	 
C 	 -41.1592 	 56.9207 	 102.256 	 
H 	 -41.9549 	 56.6683 	 103.017 	 
H 	 -40.7788 	 55.961 	 101.929 	 
H 	 -41.5931 	 57.3937 	 101.414 	 
H 	 -43.7733 	 56.2258 	 107.521 	 
H 	 -36.0234 	 59.6328 	 106.568 	 
