34

S 	 11.7676 	 -7.52951 	 65.3003 	 
C 	 10.3139 	 -7.46446 	 66.2046 	 
C 	 10.4219 	 -8.28166 	 67.2977 	 
C 	 11.5676 	 -9.11961 	 67.1948 	 
C 	 12.473 	 -8.87445 	 66.1415 	 
H 	 11.8651 	 -9.8647 	 67.8861 	 
C 	 9.36553 	 -8.44105 	 68.3789 	 
H 	 8.99089 	 -7.38195 	 68.6596 	 
H 	 9.94155 	 -8.91294 	 69.2783 	 
C 	 8.1504 	 -9.38012 	 67.9877 	 
H 	 7.81449 	 -9.15533 	 66.9477 	 
H 	 8.56458 	 -10.3861 	 68.0026 	 
C 	 7.03014 	 -9.36388 	 69.0365 	 
H 	 6.14554 	 -9.83615 	 68.7108 	 
H 	 7.35122 	 -9.83709 	 69.9679 	 
H 	 6.68816 	 -8.32186 	 69.2444 	 
S 	 15.2749 	 -8.96733 	 65.9951 	 
C 	 15.9471 	 -10.4334 	 65.3247 	 
C 	 15.0075 	 -11.192 	 64.6931 	 
C 	 13.705 	 -10.708 	 64.853 	 
C 	 13.6549 	 -9.60826 	 65.6814 	 
H 	 15.3301 	 -12.0231 	 64.1588 	 
C 	 12.5178 	 -11.4391 	 64.2503 	 
H 	 12.7333 	 -11.9855 	 63.364 	 
H 	 11.8454 	 -10.6622 	 63.976 	 
C 	 11.7613 	 -12.2529 	 65.3058 	 
H 	 11.3228 	 -11.6177 	 66.0419 	 
H 	 12.4423 	 -12.8977 	 65.7971 	 
C 	 10.5976 	 -13.09 	 64.6655 	 
H 	 9.93247 	 -12.6004 	 64.0033 	 
H 	 10.1099 	 -13.5181 	 65.4621 	 
H 	 11.0248 	 -13.8623 	 64.0615 	 
H 	 9.47497 	 -6.79907 	 66.0395 	 
H 	 17.0262 	 -10.7024 	 65.3512 	 
