34

S 	 22.9758 	 7.58315 	 73.7131 	 
C 	 21.9656 	 6.62216 	 72.6235 	 
C 	 20.7838 	 6.20463 	 73.1978 	 
C 	 20.6509 	 6.70874 	 74.4878 	 
C 	 21.7293 	 7.4909 	 74.973 	 
H 	 19.784 	 6.49585 	 75.1355 	 
C 	 19.8136 	 5.20692 	 72.601 	 
H 	 19.9411 	 4.28626 	 73.1637 	 
H 	 20.0497 	 4.87216 	 71.5875 	 
C 	 18.2857 	 5.63841 	 72.5059 	 
H 	 17.7714 	 4.97543 	 71.7515 	 
H 	 17.6996 	 5.5732 	 73.4522 	 
C 	 18.1006 	 7.02042 	 71.9058 	 
H 	 17.0857 	 7.24825 	 71.549 	 
H 	 18.3058 	 7.64056 	 72.7832 	 
H 	 18.7905 	 7.40051 	 71.1392 	 
S 	 23.6114 	 7.33839 	 76.87 	 
C 	 23.2127 	 7.82866 	 78.5479 	 
C 	 22.0764 	 8.56443 	 78.5442 	 
C 	 21.3653 	 8.59195 	 77.339 	 
C 	 22.0063 	 7.79886 	 76.3557 	 
H 	 21.7699 	 9.01587 	 79.4846 	 
C 	 19.9935 	 9.20175 	 77.0775 	 
H 	 19.739 	 9.46103 	 76.0617 	 
H 	 20.0976 	 10.1694 	 77.6096 	 
C 	 18.7042 	 8.47116 	 77.5072 	 
H 	 18.7173 	 7.47561 	 77.0159 	 
H 	 17.8504 	 8.94534 	 76.9917 	 
C 	 18.3618 	 8.51157 	 79.0455 	 
H 	 19.1878 	 8.31411 	 79.6876 	 
H 	 17.5479 	 7.86473 	 79.2475 	 
H 	 17.8617 	 9.43814 	 79.3546 	 
H 	 22.3398 	 6.40844 	 71.6533 	 
H 	 23.7662 	 7.6359 	 79.5038 	 
