34

S 	 -77.2421 	 41.5944 	 139.401 	 
C 	 -76.4099 	 40.0673 	 139.542 	 
C 	 -76.5262 	 39.4043 	 138.344 	 
C 	 -77.2074 	 40.1269 	 137.302 	 
C 	 -77.6238 	 41.3528 	 137.669 	 
H 	 -77.3304 	 39.763 	 136.32 	 
C 	 -75.8717 	 38.0733 	 137.935 	 
H 	 -75.6791 	 38.1464 	 136.85 	 
H 	 -76.5396 	 37.2785 	 138.183 	 
C 	 -74.4813 	 37.8504 	 138.585 	 
H 	 -74.5892 	 37.9678 	 139.669 	 
H 	 -74.1817 	 36.8959 	 138.483 	 
C 	 -73.3925 	 38.8246 	 138.145 	 
H 	 -73.611 	 39.8271 	 138.259 	 
H 	 -72.4881 	 38.5485 	 138.633 	 
H 	 -73.1912 	 38.6387 	 137.118 	 
S 	 -77.0046 	 43.7643 	 136.635 	 
C 	 -77.9015 	 44.4326 	 135.31 	 
C 	 -78.8939 	 43.6162 	 134.913 	 
C 	 -79.0791 	 42.4972 	 135.765 	 
C 	 -78.0987 	 42.4199 	 136.798 	 
H 	 -79.4484 	 43.8625 	 134.068 	 
C 	 -80.2328 	 41.4368 	 135.603 	 
H 	 -79.9178 	 40.4301 	 135.229 	 
H 	 -80.9456 	 41.8649 	 134.861 	 
C 	 -80.8244 	 41.2625 	 137.041 	 
H 	 -80.1377 	 40.9849 	 137.818 	 
H 	 -81.4886 	 40.431 	 137.041 	 
C 	 -81.563 	 42.4949 	 137.524 	 
H 	 -82.0217 	 42.2304 	 138.491 	 
H 	 -82.3888 	 42.6741 	 136.874 	 
H 	 -80.9044 	 43.3843 	 137.568 	 
H 	 -75.8704 	 39.6781 	 140.337 	 
H 	 -77.6664 	 45.3942 	 134.877 	 
