34

S 	 -0.0269427 	 -8.37855 	 90.5732 	 
C 	 0.469067 	 -7.16349 	 91.748 	 
C 	 -0.542272 	 -6.63617 	 92.4771 	 
C 	 -1.78569 	 -7.06119 	 91.9921 	 
C 	 -1.64802 	 -7.99091 	 91.015 	 
H 	 -2.77529 	 -6.74556 	 92.3618 	 
C 	 -0.55471 	 -5.45913 	 93.3955 	 
H 	 -1.52827 	 -5.30832 	 93.7746 	 
H 	 -0.357515 	 -4.58094 	 92.7653 	 
C 	 0.424416 	 -5.49409 	 94.5657 	 
H 	 1.45477 	 -5.59393 	 94.2009 	 
H 	 0.456897 	 -4.52558 	 95.1116 	 
C 	 0.138839 	 -6.39544 	 95.6959 	 
H 	 0.280328 	 -7.49943 	 95.4862 	 
H 	 0.779476 	 -6.14564 	 96.5467 	 
H 	 -0.849651 	 -6.34239 	 96.1337 	 
S 	 -2.76765 	 -7.92085 	 88.4825 	 
C 	 -4.3331 	 -8.61102 	 88.2322 	 
C 	 -4.98122 	 -8.82948 	 89.4522 	 
C 	 -4.05002 	 -8.73463 	 90.5493 	 
C 	 -2.76218 	 -8.3328 	 90.1965 	 
H 	 -6.01058 	 -8.97412 	 89.4256 	 
C 	 -4.43466 	 -9.19734 	 91.9607 	 
H 	 -5.41489 	 -8.74444 	 92.2722 	 
H 	 -3.72537 	 -8.84743 	 92.6808 	 
C 	 -4.52172 	 -10.7005 	 92.1362 	 
H 	 -3.55735 	 -11.1491 	 91.9033 	 
H 	 -5.21391 	 -11.1635 	 91.3722 	 
C 	 -4.87147 	 -11.0287 	 93.6196 	 
H 	 -4.09749 	 -10.7991 	 94.2896 	 
H 	 -5.12163 	 -12.0479 	 93.7687 	 
H 	 -5.79269 	 -10.4812 	 93.8653 	 
H 	 1.57038 	 -6.91925 	 91.8338 	 
H 	 -4.84619 	 -8.60296 	 87.2972 	 
