34

S 	 68.1865 	 25.536 	 73.8018 	 
C 	 67.1315 	 24.4756 	 72.8833 	 
C 	 67.786 	 23.6778 	 71.9292 	 
C 	 69.2331 	 24.0426 	 71.9214 	 
C 	 69.5904 	 24.8395 	 72.9562 	 
H 	 70.0086 	 23.6167 	 71.3383 	 
C 	 67.108 	 22.8245 	 70.8367 	 
H 	 66.8615 	 23.507 	 70.0168 	 
H 	 66.114 	 22.4656 	 71.1383 	 
C 	 67.8644 	 21.6442 	 70.2349 	 
H 	 67.1125 	 21.2899 	 69.5209 	 
H 	 68.6876 	 22.1166 	 69.6099 	 
C 	 68.4211 	 20.574 	 71.2133 	 
H 	 69.3747 	 20.8129 	 71.7463 	 
H 	 67.7328 	 20.3396 	 71.9918 	 
H 	 68.6249 	 19.6567 	 70.7114 	 
S 	 71.2842 	 27.1148 	 73.485 	 
C 	 72.9432 	 26.8385 	 73.6695 	 
C 	 73.2683 	 25.5418 	 73.3858 	 
C 	 72.2051 	 24.7153 	 73.0941 	 
C 	 70.9589 	 25.3484 	 73.1652 	 
H 	 74.2486 	 25.2402 	 73.4376 	 
C 	 72.4409 	 23.2374 	 72.6952 	 
H 	 72.1727 	 23.3617 	 71.7113 	 
H 	 71.7152 	 22.5689 	 73.2193 	 
C 	 73.8569 	 22.5158 	 72.877 	 
H 	 73.9669 	 22.2763 	 73.9188 	 
H 	 74.5894 	 23.1833 	 72.6156 	 
C 	 73.9417 	 21.0926 	 72.2375 	 
H 	 73.4949 	 21.0908 	 71.2353 	 
H 	 73.405 	 20.4338 	 72.8359 	 
H 	 74.9442 	 20.6263 	 72.1673 	 
H 	 66.0769 	 24.4489 	 72.8713 	 
H 	 73.763 	 27.5407 	 73.7021 	 
