34

S 	 -101.019 	 51.9691 	 123.777 	 
C 	 -99.7088 	 50.8291 	 123.75 	 
C 	 -99.8944 	 49.748 	 124.578 	 
C 	 -101.256 	 49.8151 	 125.125 	 
C 	 -101.966 	 50.9724 	 124.905 	 
H 	 -101.805 	 49.1646 	 125.782 	 
C 	 -98.8758 	 48.6861 	 124.908 	 
H 	 -98.4822 	 48.1635 	 124.001 	 
H 	 -99.3467 	 47.8316 	 125.386 	 
C 	 -97.7188 	 49.1014 	 125.836 	 
H 	 -97.2428 	 49.9428 	 125.336 	 
H 	 -98.1192 	 49.4405 	 126.805 	 
C 	 -96.6474 	 48.0182 	 125.955 	 
H 	 -95.8497 	 48.3784 	 126.637 	 
H 	 -97.1801 	 47.0777 	 126.336 	 
H 	 -96.1755 	 47.8375 	 124.958 	 
S 	 -104.345 	 51.8874 	 123.993 	 
C 	 -105.715 	 51.9178 	 125.045 	 
C 	 -105.346 	 51.5566 	 126.344 	 
C 	 -104 	 51.1879 	 126.493 	 
C 	 -103.318 	 51.2964 	 125.284 	 
H 	 -106.001 	 51.5127 	 127.244 	 
C 	 -103.282 	 50.8944 	 127.771 	 
H 	 -103.4 	 51.6873 	 128.46 	 
H 	 -102.177 	 50.8504 	 127.59 	 
C 	 -103.791 	 49.6033 	 128.375 	 
H 	 -103.613 	 48.8213 	 127.64 	 
H 	 -104.871 	 49.5473 	 128.756 	 
C 	 -102.908 	 49.2037 	 129.622 	 
H 	 -103.321 	 48.3153 	 130.073 	 
H 	 -103.073 	 49.9124 	 130.418 	 
H 	 -101.833 	 49.202 	 129.326 	 
H 	 -98.8186 	 51.039 	 123.194 	 
H 	 -106.643 	 52.2483 	 124.693 	 
