34

S 	 -82.906 	 39.2243 	 129.914 	 
C 	 -82.9547 	 38.4913 	 131.46 	 
C 	 -84.0701 	 38.8763 	 132.156 	 
C 	 -84.7611 	 39.9358 	 131.493 	 
C 	 -84.2572 	 40.3401 	 130.23 	 
H 	 -85.6025 	 40.4522 	 131.914 	 
C 	 -84.4298 	 38.3335 	 133.559 	 
H 	 -84.3752 	 37.256 	 133.688 	 
H 	 -85.5362 	 38.4442 	 133.716 	 
C 	 -83.8746 	 39.2271 	 134.766 	 
H 	 -84.14 	 40.2708 	 134.584 	 
H 	 -84.436 	 38.961 	 135.663 	 
C 	 -82.2995 	 39.1444 	 135.029 	 
H 	 -82.0967 	 38.2966 	 135.685 	 
H 	 -81.6464 	 39.1029 	 134.113 	 
H 	 -82.0073 	 40.045 	 135.567 	 
S 	 -84.8486 	 40.8639 	 127.673 	 
C 	 -85.475 	 42.433 	 127.164 	 
C 	 -85.8011 	 43.2076 	 128.3 	 
C 	 -85.3726 	 42.5673 	 129.486 	 
C 	 -84.7289 	 41.3441 	 129.333 	 
H 	 -86.2386 	 44.2669 	 128.092 	 
C 	 -85.3958 	 43.2922 	 130.834 	 
H 	 -84.4098 	 42.9227 	 131.22 	 
H 	 -86.2312 	 42.9013 	 131.444 	 
C 	 -85.2857 	 44.8434 	 130.747 	 
H 	 -86.1873 	 45.2496 	 130.277 	 
H 	 -84.4575 	 45.123 	 130.134 	 
C 	 -85.164 	 45.4312 	 132.15 	 
H 	 -85.4444 	 46.4508 	 131.919 	 
H 	 -84.1564 	 45.4053 	 132.551 	 
H 	 -85.9045 	 45.0346 	 132.807 	 
H 	 -82.4765 	 37.5954 	 131.765 	 
H 	 -85.6992 	 42.671 	 126.123 	 
