34

S 	 -33.0449 	 76.1068 	 149.673 	 
C 	 -32.004 	 76.8803 	 150.744 	 
C 	 -30.9181 	 76.0227 	 151.05 	 
C 	 -31.0884 	 74.6854 	 150.499 	 
C 	 -32.2188 	 74.5928 	 149.7 	 
H 	 -30.5118 	 73.8035 	 150.697 	 
C 	 -29.7693 	 76.4044 	 151.943 	 
H 	 -29.3868 	 75.4857 	 152.269 	 
H 	 -30.1594 	 76.8332 	 152.816 	 
C 	 -28.6371 	 77.1664 	 151.277 	 
H 	 -28.3608 	 76.4978 	 150.426 	 
H 	 -29.1311 	 78.0697 	 150.87 	 
C 	 -27.3615 	 77.5382 	 152.083 	 
H 	 -27.6132 	 78.1563 	 152.935 	 
H 	 -26.9887 	 76.6838 	 152.562 	 
H 	 -26.6715 	 78.2445 	 151.579 	 
S 	 -33.6976 	 73.8809 	 147.348 	 
C 	 -33.871 	 72.1749 	 146.927 	 
C 	 -33.4198 	 71.4259 	 148.007 	 
C 	 -32.8598 	 72.1535 	 149.108 	 
C 	 -32.7563 	 73.4814 	 148.859 	 
H 	 -33.5476 	 70.3782 	 148.071 	 
C 	 -32.5916 	 71.5782 	 150.422 	 
H 	 -31.5589 	 71.6052 	 150.581 	 
H 	 -32.8322 	 70.5265 	 150.445 	 
C 	 -33.2468 	 72.2615 	 151.701 	 
H 	 -34.3464 	 72.153 	 151.584 	 
H 	 -33.053 	 73.3159 	 151.812 	 
C 	 -32.8219 	 71.5872 	 153.025 	 
H 	 -33.4129 	 71.9687 	 153.867 	 
H 	 -31.7848 	 71.9054 	 153.057 	 
H 	 -32.8976 	 70.5289 	 152.969 	 
H 	 -32.0216 	 77.8992 	 151.105 	 
H 	 -34.3692 	 71.765 	 146.066 	 
