34

S 	 -103.722 	 53.8609 	 117.257 	 
C 	 -102.375 	 52.6603 	 117.089 	 
C 	 -101.212 	 53.2708 	 117.415 	 
C 	 -101.322 	 54.7059 	 117.702 	 
C 	 -102.613 	 55.1433 	 117.806 	 
H 	 -100.503 	 55.2975 	 118.01 	 
C 	 -99.8786 	 52.5033 	 117.467 	 
H 	 -100.173 	 51.4784 	 117.481 	 
H 	 -99.2955 	 52.7233 	 118.424 	 
C 	 -99.128 	 52.6528 	 116.164 	 
H 	 -99.0273 	 53.722 	 115.905 	 
H 	 -98.0965 	 52.262 	 116.27 	 
C 	 -99.8427 	 51.9565 	 114.974 	 
H 	 -99.3535 	 52.2552 	 114.035 	 
H 	 -99.8491 	 50.8577 	 114.972 	 
H 	 -100.837 	 52.3066 	 114.846 	 
S 	 -104.376 	 57.0313 	 116.639 	 
C 	 -104.116 	 58.7303 	 117.001 	 
C 	 -103.225 	 58.8401 	 118.053 	 
C 	 -102.566 	 57.6969 	 118.43 	 
C 	 -103.027 	 56.553 	 117.769 	 
H 	 -103.161 	 59.8254 	 118.467 	 
C 	 -101.413 	 57.7279 	 119.48 	 
H 	 -100.925 	 56.7809 	 119.611 	 
H 	 -101.798 	 57.9897 	 120.434 	 
C 	 -100.356 	 58.7173 	 119.11 	 
H 	 -100.872 	 59.6266 	 118.921 	 
H 	 -99.8972 	 58.5518 	 118.1 	 
C 	 -99.1987 	 58.8775 	 120.076 	 
H 	 -99.498 	 59.061 	 121.026 	 
H 	 -98.4764 	 59.6142 	 119.644 	 
H 	 -98.6526 	 57.9581 	 120.312 	 
H 	 -102.48 	 51.6517 	 116.727 	 
H 	 -104.738 	 59.5501 	 116.63 	 
