34

S 	 -49.6468 	 61.3988 	 141.4 	 
C 	 -48.4084 	 60.3172 	 140.942 	 
C 	 -47.2911 	 60.961 	 140.419 	 
C 	 -47.408 	 62.4382 	 140.494 	 
C 	 -48.5593 	 62.826 	 141.025 	 
H 	 -46.6822 	 63.141 	 140.224 	 
C 	 -46.0547 	 60.2678 	 140.039 	 
H 	 -46.3459 	 59.2153 	 139.98 	 
H 	 -45.2141 	 60.4657 	 140.724 	 
C 	 -45.6011 	 60.6952 	 138.59 	 
H 	 -46.314 	 60.1958 	 137.879 	 
H 	 -45.6238 	 61.7799 	 138.397 	 
C 	 -44.2098 	 60.1791 	 138.339 	 
H 	 -43.4226 	 60.7213 	 138.98 	 
H 	 -44.1981 	 59.0708 	 138.51 	 
H 	 -43.8982 	 60.5156 	 137.352 	 
S 	 -50.7204 	 64.3538 	 140.803 	 
C 	 -50.648 	 66.0503 	 141.195 	 
C 	 -49.3684 	 66.445 	 141.626 	 
C 	 -48.4431 	 65.3755 	 141.536 	 
C 	 -49.0458 	 64.1644 	 141.192 	 
H 	 -49.3 	 67.4573 	 141.92 	 
C 	 -47.0049 	 65.6761 	 142.076 	 
H 	 -46.5881 	 64.6808 	 142.212 	 
H 	 -47.0523 	 66.1695 	 143.047 	 
C 	 -46.0588 	 66.4517 	 141.239 	 
H 	 -46.2398 	 67.5295 	 141.321 	 
H 	 -46.2117 	 66.1881 	 140.228 	 
C 	 -44.5235 	 66.3672 	 141.544 	 
H 	 -43.9876 	 65.5861 	 140.93 	 
H 	 -44.2297 	 66.3428 	 142.602 	 
H 	 -44.1432 	 67.3046 	 141.25 	 
H 	 -48.4537 	 59.174 	 141.037 	 
H 	 -51.4982 	 66.7804 	 141.078 	 
