34

S 	 -56.4433 	 27.5061 	 97.7867 	 
C 	 -56.6242 	 28.0402 	 99.4236 	 
C 	 -57.11 	 26.9703 	 100.215 	 
C 	 -57.3415 	 25.7371 	 99.4842 	 
C 	 -57.1551 	 25.9363 	 98.1217 	 
H 	 -57.5785 	 24.8311 	 99.9206 	 
C 	 -57.1268 	 27.0002 	 101.741 	 
H 	 -57.261 	 28.0286 	 102.071 	 
H 	 -56.1901 	 26.5907 	 102.027 	 
C 	 -58.2357 	 26.2889 	 102.391 	 
H 	 -59.2646 	 26.6021 	 102.028 	 
H 	 -58.1306 	 25.2661 	 102.123 	 
C 	 -58.2819 	 26.4203 	 103.892 	 
H 	 -59.1022 	 25.7538 	 104.234 	 
H 	 -57.3028 	 26.0953 	 104.268 	 
H 	 -58.4079 	 27.4727 	 104.278 	 
S 	 -58.963 	 24.146 	 97.1517 	 
C 	 -58.5649 	 23.166 	 95.8085 	 
C 	 -57.276 	 23.3523 	 95.3759 	 
C 	 -56.5823 	 24.3249 	 96.0987 	 
C 	 -57.3802 	 24.9267 	 97.0865 	 
H 	 -56.808 	 22.7817 	 94.5831 	 
C 	 -55.155 	 24.6954 	 95.7599 	 
H 	 -54.9255 	 25.6915 	 96.0925 	 
H 	 -55.1979 	 24.668 	 94.6427 	 
C 	 -54.0885 	 23.7431 	 96.2127 	 
H 	 -54.0683 	 22.8846 	 95.5593 	 
H 	 -54.2564 	 23.4389 	 97.2162 	 
C 	 -52.6726 	 24.3303 	 96.2998 	 
H 	 -52.3236 	 24.5438 	 95.2544 	 
H 	 -51.9588 	 23.5679 	 96.6848 	 
H 	 -52.6672 	 25.2852 	 96.858 	 
H 	 -56.0953 	 28.8703 	 99.7669 	 
H 	 -59.1856 	 22.3004 	 95.5923 	 
