34

S 	 -10.8164 	 60.4182 	 54.1614 	 
C 	 -9.48395 	 59.3364 	 54.6473 	 
C 	 -8.68854 	 59.8424 	 55.6246 	 
C 	 -9.21566 	 61.1095 	 56.0413 	 
C 	 -10.3169 	 61.6003 	 55.3584 	 
H 	 -8.77926 	 61.7562 	 56.8532 	 
C 	 -7.40682 	 59.2764 	 56.1921 	 
H 	 -7.55066 	 58.2554 	 56.5534 	 
H 	 -7.1397 	 59.8644 	 57.033 	 
C 	 -6.11354 	 59.1568 	 55.3352 	 
H 	 -5.48702 	 58.4565 	 55.9198 	 
H 	 -6.36559 	 58.6434 	 54.4247 	 
C 	 -5.27698 	 60.4573 	 55.0051 	 
H 	 -5.85349 	 61.303 	 54.6642 	 
H 	 -4.71507 	 60.7786 	 55.8665 	 
H 	 -4.53324 	 60.308 	 54.2375 	 
S 	 -11.6961 	 63.4055 	 56.9609 	 
C 	 -11.7582 	 65.124 	 56.6964 	 
C 	 -11.4613 	 65.3592 	 55.3715 	 
C 	 -10.9347 	 64.2419 	 54.6168 	 
C 	 -10.7854 	 63.0464 	 55.4913 	 
H 	 -11.5443 	 66.4379 	 55.0455 	 
C 	 -10.5385 	 64.2856 	 53.1795 	 
H 	 -11.501 	 64.3661 	 52.6507 	 
H 	 -10.0773 	 63.324 	 52.8751 	 
C 	 -9.65684 	 65.4718 	 52.7923 	 
H 	 -10.1651 	 66.318 	 53.193 	 
H 	 -9.67573 	 65.6317 	 51.6788 	 
C 	 -8.24618 	 65.1777 	 53.2191 	 
H 	 -7.52813 	 65.9928 	 53.2336 	 
H 	 -7.79098 	 64.3236 	 52.6405 	 
H 	 -8.16138 	 64.8572 	 54.2714 	 
H 	 -9.27852 	 58.4505 	 54.148 	 
H 	 -11.8525 	 65.9299 	 57.4236 	 
