34

S 	 -26.4354 	 59.4545 	 105.981 	 
C 	 -26.7312 	 61.0658 	 105.466 	 
C 	 -28.0774 	 61.3279 	 105.34 	 
C 	 -28.8427 	 60.2627 	 105.746 	 
C 	 -28.1416 	 59.2167 	 106.208 	 
H 	 -29.9125 	 60.2437 	 105.56 	 
C 	 -28.6819 	 62.6969 	 105.159 	 
H 	 -27.9143 	 63.4183 	 105.317 	 
H 	 -29.4836 	 62.7884 	 105.808 	 
C 	 -29.1053 	 63.0539 	 103.747 	 
H 	 -29.6396 	 62.186 	 103.292 	 
H 	 -29.824 	 63.8818 	 103.687 	 
C 	 -27.8905 	 63.5069 	 102.876 	 
H 	 -27.9979 	 63.6177 	 101.803 	 
H 	 -27.437 	 64.4442 	 103.203 	 
H 	 -27.0861 	 62.8335 	 102.946 	 
S 	 -29.0452 	 56.7166 	 105.255 	 
C 	 -29.97 	 55.6283 	 106.285 	 
C 	 -29.9426 	 56.1423 	 107.57 	 
C 	 -29.1892 	 57.3676 	 107.726 	 
C 	 -28.7309 	 57.8819 	 106.481 	 
H 	 -30.4422 	 55.5221 	 108.338 	 
C 	 -29.1522 	 58.1258 	 109.129 	 
H 	 -28.3919 	 58.9237 	 109.047 	 
H 	 -28.7878 	 57.464 	 109.94 	 
C 	 -30.5126 	 58.8072 	 109.509 	 
H 	 -31.2228 	 58.0558 	 109.883 	 
H 	 -30.8762 	 59.341 	 108.612 	 
C 	 -30.3273 	 59.8668 	 110.656 	 
H 	 -30.0148 	 59.4285 	 111.59 	 
H 	 -31.3085 	 60.4276 	 110.905 	 
H 	 -29.6238 	 60.6306 	 110.387 	 
H 	 -25.9275 	 61.8077 	 105.381 	 
H 	 -30.4977 	 54.7334 	 106.032 	 
