34

S 	 -48.3986 	 60.8921 	 131.87 	 
C 	 -48.3033 	 59.2788 	 131.218 	 
C 	 -47.2451 	 58.578 	 131.781 	 
C 	 -46.5776 	 59.3435 	 132.761 	 
C 	 -47.062 	 60.6773 	 132.882 	 
H 	 -45.7945 	 59.0405 	 133.456 	 
C 	 -46.8231 	 57.1221 	 131.472 	 
H 	 -45.9816 	 57.1636 	 130.915 	 
H 	 -47.6503 	 56.752 	 130.815 	 
C 	 -46.4144 	 56.3764 	 132.709 	 
H 	 -45.9797 	 55.4335 	 132.452 	 
H 	 -45.5463 	 56.7574 	 133.219 	 
C 	 -47.5726 	 56.0763 	 133.675 	 
H 	 -47.8083 	 57.0829 	 134.196 	 
H 	 -48.4504 	 55.6461 	 133.191 	 
H 	 -47.169 	 55.4266 	 134.436 	 
S 	 -45.5963 	 63.0807 	 132.918 	 
C 	 -44.939 	 63.6352 	 134.426 	 
C 	 -45.4699 	 62.8892 	 135.492 	 
C 	 -46.357 	 61.8353 	 135.058 	 
C 	 -46.4606 	 61.7185 	 133.657 	 
H 	 -45.1275 	 63.0482 	 136.461 	 
C 	 -47.0663 	 60.8871 	 135.991 	 
H 	 -46.2773 	 60.5418 	 136.708 	 
H 	 -47.4585 	 59.9713 	 135.447 	 
C 	 -48.2297 	 61.5452 	 136.75 	 
H 	 -48.9793 	 62.0381 	 136.105 	 
H 	 -47.7735 	 62.3906 	 137.315 	 
C 	 -48.9624 	 60.59 	 137.745 	 
H 	 -49.8109 	 61.0411 	 138.224 	 
H 	 -48.211 	 60.4009 	 138.559 	 
H 	 -49.3629 	 59.662 	 137.278 	 
H 	 -49.1183 	 58.7113 	 130.701 	 
H 	 -44.1757 	 64.4159 	 134.464 	 
