34

S 	 -89.808 	 54.4721 	 127.826 	 
C 	 -90.3579 	 53.0694 	 128.72 	 
C 	 -91.376 	 53.3877 	 129.58 	 
C 	 -91.7771 	 54.788 	 129.413 	 
C 	 -90.9924 	 55.5329 	 128.589 	 
H 	 -92.6317 	 55.3239 	 129.85 	 
C 	 -92.2111 	 52.3226 	 130.232 	 
H 	 -91.5166 	 51.7112 	 130.769 	 
H 	 -92.5689 	 51.6648 	 129.46 	 
C 	 -93.3676 	 52.7038 	 131.109 	 
H 	 -92.9106 	 53.3693 	 131.858 	 
H 	 -94.1914 	 53.2453 	 130.515 	 
C 	 -94.1771 	 51.6268 	 131.831 	 
H 	 -94.7581 	 50.9765 	 131.169 	 
H 	 -93.4196 	 50.9943 	 132.381 	 
H 	 -94.6074 	 52.1747 	 132.624 	 
S 	 -90.4122 	 57.9493 	 129.735 	 
C 	 -90.7593 	 59.4192 	 128.797 	 
C 	 -91.179 	 59.1368 	 127.536 	 
C 	 -91.2058 	 57.7673 	 127.235 	 
C 	 -90.966 	 56.999 	 128.389 	 
H 	 -91.2832 	 59.972 	 126.873 	 
C 	 -91.5336 	 57.3184 	 125.827 	 
H 	 -92.3385 	 58.0379 	 125.566 	 
H 	 -91.8767 	 56.2597 	 125.677 	 
C 	 -90.3661 	 57.4339 	 124.838 	 
H 	 -89.4801 	 56.9359 	 125.19 	 
H 	 -90.0822 	 58.4823 	 124.778 	 
C 	 -90.7568 	 56.924 	 123.457 	 
H 	 -90.1936 	 57.2153 	 122.542 	 
H 	 -91.8245 	 57.1706 	 123.328 	 
H 	 -90.6105 	 55.8509 	 123.501 	 
H 	 -90.0044 	 52.0589 	 128.525 	 
H 	 -90.476 	 60.3802 	 129.057 	 
