34

S 	 -49.8189 	 63.2596 	 132.513 	 
C 	 -50.2066 	 61.6566 	 132.955 	 
C 	 -49.2156 	 60.9745 	 133.597 	 
C 	 -48.046 	 61.7662 	 133.72 	 
C 	 -48.2821 	 63.0842 	 133.42 	 
H 	 -47.1668 	 61.3725 	 134.167 	 
C 	 -49.2611 	 59.5858 	 134.105 	 
H 	 -48.296 	 59.1199 	 133.665 	 
H 	 -50.1318 	 59.1352 	 133.664 	 
C 	 -49.394 	 59.5032 	 135.657 	 
H 	 -48.9569 	 58.5269 	 135.959 	 
H 	 -48.7055 	 60.0903 	 136.172 	 
C 	 -50.815 	 59.7107 	 136.34 	 
H 	 -51.2891 	 60.6471 	 136.137 	 
H 	 -51.4546 	 58.9197 	 135.96 	 
H 	 -50.7148 	 59.6916 	 137.405 	 
S 	 -47.2556 	 65.2512 	 132.177 	 
C 	 -45.6556 	 65.8208 	 132.72 	 
C 	 -45.3726 	 65.385 	 133.989 	 
C 	 -46.2181 	 64.2649 	 134.323 	 
C 	 -47.3217 	 64.1303 	 133.513 	 
H 	 -44.4462 	 65.7751 	 134.522 	 
C 	 -45.9674 	 63.4629 	 135.582 	 
H 	 -46.897 	 62.9141 	 135.688 	 
H 	 -45.7711 	 64.2053 	 136.395 	 
C 	 -44.8354 	 62.4768 	 135.495 	 
H 	 -43.927 	 63.1745 	 135.618 	 
H 	 -44.6872 	 61.9199 	 134.574 	 
C 	 -44.952 	 61.5289 	 136.688 	 
H 	 -44.6064 	 60.497 	 136.394 	 
H 	 -46.0044 	 61.4096 	 137.095 	 
H 	 -44.2446 	 61.8255 	 137.456 	 
H 	 -51.1544 	 61.1088 	 132.526 	 
H 	 -45.1646 	 66.6648 	 132.266 	 
