34

S 	 38.93 	 26.4737 	 82.2441 	 
C 	 38.0716 	 26.8081 	 83.7728 	 
C 	 38.9351 	 26.9881 	 84.8448 	 
C 	 40.3303 	 26.7503 	 84.461 	 
C 	 40.4498 	 26.4361 	 83.1075 	 
H 	 41.1984 	 26.8763 	 85.1158 	 
C 	 38.5682 	 27.5424 	 86.1729 	 
H 	 39.4447 	 27.2668 	 86.7988 	 
H 	 37.7032 	 27.1359 	 86.7069 	 
C 	 38.3536 	 29.0877 	 86.2912 	 
H 	 39.2028 	 29.6076 	 85.8371 	 
H 	 37.4557 	 29.3724 	 85.6775 	 
C 	 38.182 	 29.6115 	 87.7617 	 
H 	 37.809 	 30.5947 	 87.6877 	 
H 	 37.4708 	 29.039 	 88.4664 	 
H 	 39.1853 	 29.5213 	 88.2303 	 
S 	 41.794 	 26.9462 	 80.7028 	 
C 	 43.5624 	 26.9028 	 80.6646 	 
C 	 44.0236 	 26.3052 	 81.8134 	 
C 	 42.999 	 26.2114 	 82.8549 	 
C 	 41.7143 	 26.43 	 82.3935 	 
H 	 45.0356 	 26.1907 	 81.8845 	 
C 	 43.5772 	 25.8541 	 84.1997 	 
H 	 44.3769 	 25.0823 	 84.0144 	 
H 	 42.8734 	 25.3375 	 84.7967 	 
C 	 44.1966 	 27.0128 	 84.9673 	 
H 	 43.3665 	 27.7323 	 84.91 	 
H 	 45.0494 	 27.4289 	 84.3738 	 
C 	 44.5046 	 26.6871 	 86.4195 	 
H 	 45.0892 	 27.5209 	 86.8558 	 
H 	 45.1845 	 25.8172 	 86.3704 	 
H 	 43.6597 	 26.4172 	 87.0101 	 
H 	 37.042 	 27.0546 	 83.8178 	 
H 	 44.2156 	 26.9771 	 79.7631 	 
