34

S 	 -39.4445 	 65.8065 	 148.619 	 
C 	 -40.0777 	 65.837 	 146.978 	 
C 	 -39.536 	 66.7763 	 146.191 	 
C 	 -38.4206 	 67.344 	 146.843 	 
C 	 -38.2979 	 67.0246 	 148.183 	 
H 	 -37.8182 	 68.1452 	 146.47 	 
C 	 -40.05 	 67.1323 	 144.841 	 
H 	 -39.7772 	 68.1466 	 144.613 	 
H 	 -41.2035 	 67.1396 	 144.879 	 
C 	 -39.5882 	 66.139 	 143.762 	 
H 	 -39.9337 	 65.1088 	 143.939 	 
H 	 -40.0935 	 66.4293 	 142.82 	 
C 	 -38.0873 	 66.1228 	 143.371 	 
H 	 -38.0065 	 65.6252 	 142.419 	 
H 	 -37.6979 	 67.0896 	 143.204 	 
H 	 -37.4905 	 65.5775 	 144.099 	 
S 	 -38.1384 	 67.9984 	 150.758 	 
C 	 -36.6023 	 68.5064 	 151.381 	 
C 	 -35.6048 	 68.4076 	 150.409 	 
C 	 -36.0974 	 68.0304 	 149.131 	 
C 	 -37.4581 	 67.6792 	 149.174 	 
H 	 -34.5861 	 68.7528 	 150.626 	 
C 	 -35.1699 	 67.9053 	 147.972 	 
H 	 -35.4508 	 67.0975 	 147.257 	 
H 	 -34.2102 	 67.4722 	 148.316 	 
C 	 -35.043 	 69.2569 	 147.227 	 
H 	 -34.3378 	 69.8391 	 147.742 	 
H 	 -35.9824 	 69.8293 	 147.146 	 
C 	 -34.3526 	 69.1396 	 145.854 	 
H 	 -35.0952 	 68.7164 	 145.108 	 
H 	 -33.4691 	 68.5175 	 145.942 	 
H 	 -34.122 	 70.1444 	 145.546 	 
H 	 -40.9805 	 65.2497 	 146.743 	 
H 	 -36.3231 	 68.8739 	 152.341 	 
