34

S 	 -46.6852 	 64.1626 	 137.517 	 
C 	 -46.7445 	 62.4937 	 136.986 	 
C 	 -48.0558 	 62.0683 	 136.96 	 
C 	 -48.8731 	 62.8375 	 137.801 	 
C 	 -48.3224 	 64.1152 	 138.102 	 
H 	 -49.9033 	 62.571 	 138.09 	 
C 	 -48.5262 	 60.7711 	 136.304 	 
H 	 -48.0845 	 60.6369 	 135.331 	 
H 	 -49.6083 	 60.7845 	 136.076 	 
C 	 -48.1685 	 59.4682 	 137.094 	 
H 	 -47.1675 	 59.1674 	 137.004 	 
H 	 -48.4023 	 59.5629 	 138.111 	 
C 	 -48.9348 	 58.198 	 136.703 	 
H 	 -48.8877 	 57.9111 	 135.624 	 
H 	 -48.4317 	 57.3814 	 137.119 	 
H 	 -49.9352 	 58.0509 	 137.15 	 
S 	 -50.6061 	 65.6661 	 138.106 	 
C 	 -50.8497 	 66.9296 	 139.275 	 
C 	 -49.8223 	 66.8845 	 140.223 	 
C 	 -48.7479 	 65.9769 	 139.911 	 
C 	 -49.0685 	 65.1547 	 138.82 	 
H 	 -49.8865 	 67.5756 	 141.106 	 
C 	 -47.6541 	 65.709 	 140.924 	 
H 	 -47.3244 	 66.5932 	 141.472 	 
H 	 -46.8337 	 65.2903 	 140.378 	 
C 	 -47.9875 	 64.6909 	 142.015 	 
H 	 -48.0497 	 63.7428 	 141.557 	 
H 	 -48.9037 	 65.0028 	 142.484 	 
C 	 -46.8171 	 64.4788 	 143.035 	 
H 	 -47.0638 	 63.6861 	 143.787 	 
H 	 -46.4889 	 65.4146 	 143.479 	 
H 	 -45.9978 	 64.1635 	 142.384 	 
H 	 -45.9655 	 61.8954 	 136.49 	 
H 	 -51.6647 	 67.5884 	 139.465 	 
