34

S 	 -36.4215 	 30.3922 	 82.3601 	 
C 	 -35.4783 	 30.8457 	 80.9483 	 
C 	 -36.3072 	 30.9919 	 79.8384 	 
C 	 -37.6792 	 30.7673 	 80.1531 	 
C 	 -37.9712 	 30.4868 	 81.4892 	 
H 	 -38.526 	 30.6747 	 79.4446 	 
C 	 -35.7831 	 31.2023 	 78.4272 	 
H 	 -34.9147 	 31.8867 	 78.3487 	 
H 	 -36.509 	 31.7857 	 77.8769 	 
C 	 -35.5055 	 29.9471 	 77.6055 	 
H 	 -34.7759 	 29.3814 	 78.157 	 
H 	 -36.3826 	 29.2673 	 77.4918 	 
C 	 -35.0831 	 30.2519 	 76.1468 	 
H 	 -34.231 	 30.8445 	 76.2577 	 
H 	 -34.9288 	 29.3793 	 75.5208 	 
H 	 -35.7534 	 30.7358 	 75.5424 	 
S 	 -39.4452 	 30.2141 	 83.8368 	 
C 	 -41.0588 	 29.5313 	 83.7558 	 
C 	 -41.3639 	 29.1351 	 82.4613 	 
C 	 -40.3284 	 29.4082 	 81.4782 	 
C 	 -39.2348 	 30.0162 	 82.0486 	 
H 	 -42.348 	 28.656 	 82.2142 	 
C 	 -40.5414 	 28.9433 	 80.069 	 
H 	 -41.0822 	 28.0406 	 80.0542 	 
H 	 -39.5866 	 28.8101 	 79.5819 	 
C 	 -41.2286 	 30.0291 	 79.1594 	 
H 	 -40.5729 	 30.8533 	 78.8497 	 
H 	 -41.9947 	 30.4709 	 79.852 	 
C 	 -41.9025 	 29.341 	 77.9537 	 
H 	 -42.5938 	 28.4321 	 78.086 	 
H 	 -41.1436 	 28.8151 	 77.3555 	 
H 	 -42.3618 	 30.0031 	 77.1746 	 
H 	 -34.4174 	 30.888 	 81.1066 	 
H 	 -41.738 	 29.4254 	 84.5741 	 
