34

S 	 22.1489 	 1.28833 	 86.7879 	 
C 	 23.6819 	 1.87443 	 87.3793 	 
C 	 24.5403 	 2.25879 	 86.3169 	 
C 	 23.8407 	 2.32187 	 85.1169 	 
C 	 22.5679 	 1.81639 	 85.1215 	 
H 	 24.2185 	 2.59477 	 84.1131 	 
C 	 25.9236 	 2.79653 	 86.4311 	 
H 	 26.119 	 2.6822 	 87.4825 	 
H 	 25.9476 	 3.88484 	 86.3068 	 
C 	 27.0055 	 2.06303 	 85.5738 	 
H 	 26.8858 	 0.948444 	 85.7645 	 
H 	 26.8212 	 2.12373 	 84.5006 	 
C 	 28.4752 	 2.46208 	 85.873 	 
H 	 29.2639 	 1.85649 	 85.4393 	 
H 	 28.6008 	 3.50219 	 85.5433 	 
H 	 28.6845 	 2.50433 	 86.931 	 
S 	 20.546 	 0.357488 	 83.7397 	 
C 	 19.6119 	 1.1907 	 82.5299 	 
C 	 20.172 	 2.39774 	 82.2344 	 
C 	 21.1561 	 2.7848 	 83.1277 	 
C 	 21.5819 	 1.78259 	 84.0193 	 
H 	 19.7702 	 3.03114 	 81.3974 	 
C 	 21.7914 	 4.17583 	 83.1366 	 
H 	 22.2804 	 4.42504 	 84.1049 	 
H 	 20.9224 	 4.90681 	 82.9074 	 
C 	 22.8607 	 4.38699 	 82.0024 	 
H 	 22.2846 	 4.31625 	 81.0628 	 
H 	 23.628 	 3.58755 	 81.9573 	 
C 	 23.5611 	 5.68879 	 82.1568 	 
H 	 24.2121 	 5.62454 	 83.0102 	 
H 	 22.8322 	 6.45722 	 82.3787 	 
H 	 24.1573 	 6.02009 	 81.3026 	 
H 	 24.0277 	 1.77821 	 88.3762 	 
H 	 18.8094 	 0.734035 	 81.9081 	 
