34

S 	 48.9468 	 11.037 	 91.7638 	 
C 	 48.5042 	 12.7204 	 91.8001 	 
C 	 48.3494 	 13.3266 	 90.6034 	 
C 	 48.3238 	 12.3106 	 89.5808 	 
C 	 48.5146 	 11.0057 	 90.0402 	 
H 	 48.0781 	 12.3465 	 88.5185 	 
C 	 48.1809 	 14.807 	 90.3341 	 
H 	 47.442 	 15.1676 	 91.0353 	 
H 	 47.7397 	 14.9289 	 89.4136 	 
C 	 49.4287 	 15.7445 	 90.5593 	 
H 	 49.1277 	 16.7378 	 90.2434 	 
H 	 49.7378 	 15.7946 	 91.6276 	 
C 	 50.6761 	 15.3228 	 89.7548 	 
H 	 50.4986 	 15.7051 	 88.8163 	 
H 	 51.6343 	 15.781 	 90.0406 	 
H 	 50.7419 	 14.2602 	 89.5506 	 
S 	 50.3151 	 9.24171 	 89.1146 	 
C 	 49.7704 	 8.03725 	 87.9948 	 
C 	 48.3974 	 7.95001 	 87.8684 	 
C 	 47.7277 	 9.00204 	 88.5563 	 
C 	 48.6612 	 9.8436 	 89.1875 	 
H 	 48.019 	 7.05357 	 87.4285 	 
C 	 46.2137 	 9.21202 	 88.7022 	 
H 	 45.8306 	 8.7882 	 87.794 	 
H 	 45.9107 	 10.2829 	 88.7804 	 
C 	 45.622 	 8.36558 	 89.8487 	 
H 	 46.0625 	 8.76022 	 90.7645 	 
H 	 46.0329 	 7.3613 	 89.6699 	 
C 	 44.079 	 8.35397 	 89.9433 	 
H 	 43.5803 	 7.59745 	 90.6181 	 
H 	 43.6189 	 8.11197 	 88.8955 	 
H 	 43.6528 	 9.39131 	 90.1057 	 
H 	 48.5747 	 13.2372 	 92.7803 	 
H 	 50.4679 	 7.32347 	 87.5633 	 
