34

S 	 -12.6334 	 36.1283 	 55.2115 	 
C 	 -11.544 	 37.3692 	 55.6857 	 
C 	 -11.8928 	 38.5989 	 55.2158 	 
C 	 -13.0076 	 38.4448 	 54.2959 	 
C 	 -13.4791 	 37.1902 	 54.2275 	 
H 	 -13.4808 	 39.2299 	 53.6635 	 
C 	 -11.1727 	 39.9835 	 55.4025 	 
H 	 -10.4219 	 40.078 	 54.5957 	 
H 	 -10.5606 	 39.9521 	 56.3223 	 
C 	 -12.088 	 41.1965 	 55.4018 	 
H 	 -11.5423 	 42.0989 	 55.438 	 
H 	 -12.5054 	 41.2968 	 54.3838 	 
C 	 -13.0186 	 41.2195 	 56.5658 	 
H 	 -13.747 	 42.0476 	 56.6716 	 
H 	 -13.6959 	 40.4052 	 56.3864 	 
H 	 -12.5984 	 41.0609 	 57.5758 	 
S 	 -16.2029 	 37.3886 	 53.9063 	 
C 	 -17.0469 	 36.2846 	 52.8629 	 
C 	 -16.1766 	 35.4293 	 52.2273 	 
C 	 -14.7917 	 35.7355 	 52.4894 	 
C 	 -14.6296 	 36.7483 	 53.455 	 
H 	 -16.4468 	 34.6897 	 51.459 	 
C 	 -13.7007 	 34.9686 	 51.7804 	 
H 	 -12.8891 	 34.8952 	 52.4492 	 
H 	 -13.3693 	 35.6146 	 50.9135 	 
C 	 -14.1049 	 33.5627 	 51.2827 	 
H 	 -14.6005 	 33.5016 	 50.3675 	 
H 	 -14.8436 	 33.1247 	 52.0096 	 
C 	 -12.8312 	 32.6524 	 51.433 	 
H 	 -12.0495 	 32.76 	 50.6382 	 
H 	 -13.0358 	 31.6102 	 51.5263 	 
H 	 -12.1958 	 32.8917 	 52.2986 	 
H 	 -10.7671 	 37.3026 	 56.4033 	 
H 	 -18.0957 	 36.2665 	 52.9336 	 
