34

S 	 -2.6114 	 -13.779 	 81.7021 	 
C 	 -1.37213 	 -12.703 	 82.3886 	 
C 	 -1.80831 	 -11.3852 	 82.3872 	 
C 	 -3.16388 	 -11.2794 	 81.9919 	 
C 	 -3.76931 	 -12.4741 	 81.5777 	 
H 	 -3.71061 	 -10.3598 	 82.0078 	 
C 	 -1.02442 	 -10.1017 	 82.6298 	 
H 	 -0.166334 	 -10.4651 	 83.2738 	 
H 	 -1.60684 	 -9.38472 	 83.1879 	 
C 	 -0.459485 	 -9.5732 	 81.2945 	 
H 	 0.340862 	 -8.92959 	 81.4941 	 
H 	 0.019129 	 -10.384 	 80.7495 	 
C 	 -1.49172 	 -8.82156 	 80.4748 	 
H 	 -2.39775 	 -9.34162 	 80.179 	 
H 	 -1.782 	 -7.95004 	 81.0316 	 
H 	 -1.03451 	 -8.42018 	 79.5618 	 
S 	 -5.98159 	 -11.3593 	 80.3248 	 
C 	 -7.42366 	 -12.273 	 80.1623 	 
C 	 -7.41911 	 -13.4715 	 80.8348 	 
C 	 -6.08694 	 -13.7196 	 81.3157 	 
C 	 -5.15497 	 -12.6478 	 81.1596 	 
H 	 -8.22637 	 -14.1782 	 80.9726 	 
C 	 -5.87972 	 -14.8967 	 82.2926 	 
H 	 -4.85105 	 -14.8255 	 82.4947 	 
H 	 -6.02607 	 -15.89 	 81.8885 	 
C 	 -6.54166 	 -14.7545 	 83.6968 	 
H 	 -7.59964 	 -14.8734 	 83.747 	 
H 	 -6.45206 	 -13.7695 	 84.1686 	 
C 	 -5.99169 	 -15.7556 	 84.6951 	 
H 	 -6.48855 	 -15.5499 	 85.6211 	 
H 	 -4.89802 	 -15.7471 	 84.9057 	 
H 	 -6.25151 	 -16.7234 	 84.2607 	 
H 	 -0.44509 	 -13.0758 	 82.6545 	 
H 	 -8.26214 	 -11.8103 	 79.8327 	 
