34

S 	 69.604 	 23.1809 	 73.6718 	 
C 	 70.3077 	 22.0996 	 74.7909 	 
C 	 70.6131 	 22.5509 	 76.0634 	 
C 	 70.3243 	 23.9465 	 76.0757 	 
C 	 69.7694 	 24.4854 	 74.9052 	 
H 	 70.454 	 24.5655 	 76.9407 	 
C 	 71.262 	 21.7074 	 77.1418 	 
H 	 71.3709 	 22.4118 	 77.9955 	 
H 	 72.2686 	 21.52 	 76.7806 	 
C 	 70.5349 	 20.4014 	 77.4532 	 
H 	 69.5063 	 20.455 	 77.7626 	 
H 	 70.4079 	 19.9081 	 76.4965 	 
C 	 71.5684 	 19.5486 	 78.2699 	 
H 	 72.4938 	 19.6048 	 77.7014 	 
H 	 71.6857 	 19.9416 	 79.2693 	 
H 	 71.3076 	 18.5493 	 78.4415 	 
S 	 70.5609 	 26.6329 	 73.5517 	 
C 	 70.1091 	 28.2582 	 73.943 	 
C 	 69.2511 	 28.2731 	 75.0536 	 
C 	 69.0376 	 26.9023 	 75.5308 	 
C 	 69.6338 	 25.9259 	 74.7683 	 
H 	 68.856 	 29.194 	 75.4749 	 
C 	 68.1684 	 26.6956 	 76.7601 	 
H 	 68.3831 	 25.6835 	 77.0145 	 
H 	 67.181 	 26.6842 	 76.3773 	 
C 	 68.2603 	 27.5886 	 77.9502 	 
H 	 67.5694 	 28.4118 	 77.8201 	 
H 	 69.2317 	 28.0402 	 78.1099 	 
C 	 67.7439 	 26.8473 	 79.2606 	 
H 	 66.8262 	 26.34 	 78.8757 	 
H 	 67.542 	 27.6313 	 80.0143 	 
H 	 68.443 	 26.0112 	 79.4185 	 
H 	 70.3152 	 21.0061 	 74.4632 	 
H 	 70.6646 	 29.1697 	 73.6224 	 
