34

S 	 -9.89152 	 -10.0003 	 87.4196 	 
C 	 -10.5792 	 -10.0188 	 85.7911 	 
C 	 -11.9243 	 -10.3892 	 85.8501 	 
C 	 -12.377 	 -10.7638 	 87.1618 	 
C 	 -11.3306 	 -10.7911 	 88.1108 	 
H 	 -13.3317 	 -11.1436 	 87.557 	 
C 	 -12.8541 	 -10.4796 	 84.6184 	 
H 	 -12.6151 	 -11.4443 	 84.233 	 
H 	 -12.5466 	 -9.61524 	 84.0518 	 
C 	 -14.3586 	 -10.408 	 85.0267 	 
H 	 -14.5642 	 -11.2357 	 85.6684 	 
H 	 -14.5321 	 -9.51104 	 85.6434 	 
C 	 -15.222 	 -10.2991 	 83.7464 	 
H 	 -15.0424 	 -11.1557 	 83.1292 	 
H 	 -16.3239 	 -10.2344 	 83.9354 	 
H 	 -14.9024 	 -9.42018 	 83.1706 	 
S 	 -10.7856 	 -10.2929 	 90.7625 	 
C 	 -11.3511 	 -11.4979 	 91.9287 	 
C 	 -11.6939 	 -12.7158 	 91.332 	 
C 	 -11.6992 	 -12.6065 	 89.8517 	 
C 	 -11.4087 	 -11.3122 	 89.4627 	 
H 	 -11.9066 	 -13.6369 	 91.8722 	 
C 	 -11.9313 	 -13.8054 	 88.975 	 
H 	 -12.626 	 -13.3748 	 88.2442 	 
H 	 -12.4699 	 -14.5324 	 89.554 	 
C 	 -10.6284 	 -14.3938 	 88.3222 	 
H 	 -10.1146 	 -13.5953 	 87.9073 	 
H 	 -10.942 	 -15.0001 	 87.4639 	 
C 	 -9.70462 	 -15.0255 	 89.3386 	 
H 	 -10.2725 	 -15.7259 	 89.9917 	 
H 	 -9.24812 	 -14.3046 	 90.0391 	 
H 	 -9.00704 	 -15.6854 	 88.8834 	 
H 	 -10.0132 	 -9.87637 	 84.8372 	 
H 	 -11.0768 	 -11.4756 	 93.0082 	 
