34

S 	 -32.3349 	 55.4812 	 109.619 	 
C 	 -32.9835 	 56.9396 	 108.843 	 
C 	 -33.2116 	 56.7777 	 107.463 	 
C 	 -33.0219 	 55.4072 	 107.085 	 
C 	 -32.6066 	 54.6348 	 108.126 	 
H 	 -33.4116 	 54.9105 	 106.212 	 
C 	 -33.6658 	 57.9383 	 106.499 	 
H 	 -33.0517 	 58.0822 	 105.648 	 
H 	 -33.4869 	 58.9071 	 107.043 	 
C 	 -35.1287 	 57.8356 	 106.161 	 
H 	 -35.2675 	 56.8307 	 105.871 	 
H 	 -35.763 	 57.9097 	 106.985 	 
C 	 -35.514 	 58.8548 	 105.084 	 
H 	 -35.2407 	 59.8804 	 105.416 	 
H 	 -35.0406 	 58.6884 	 104.082 	 
H 	 -36.6157 	 58.8061 	 104.869 	 
S 	 -33.6443 	 52.2082 	 108.691 	 
C 	 -32.6071 	 50.8378 	 108.788 	 
C 	 -31.2992 	 51.1545 	 108.459 	 
C 	 -31.1175 	 52.5514 	 108.138 	 
C 	 -32.3106 	 53.2126 	 108.181 	 
H 	 -30.5563 	 50.4293 	 108.509 	 
C 	 -29.8339 	 53.1882 	 107.761 	 
H 	 -29.9773 	 54.0681 	 107.152 	 
H 	 -29.2442 	 52.4896 	 107.088 	 
C 	 -28.8302 	 53.5924 	 108.885 	 
H 	 -28.9866 	 52.8926 	 109.777 	 
H 	 -29.2092 	 54.4545 	 109.418 	 
C 	 -27.3452 	 53.539 	 108.548 	 
H 	 -26.6467 	 53.8666 	 109.373 	 
H 	 -27.134 	 54.2992 	 107.752 	 
H 	 -27.1195 	 52.543 	 108.081 	 
H 	 -33.1825 	 57.8378 	 109.449 	 
H 	 -32.9455 	 49.8727 	 109.066 	 
