34

S 	 -43.3344 	 23.6768 	 77.5679 	 
C 	 -43.7991 	 24.2252 	 79.1459 	 
C 	 -42.6959 	 24.1707 	 80.0041 	 
C 	 -41.52 	 23.6072 	 79.3674 	 
C 	 -41.703 	 23.4064 	 78.0712 	 
H 	 -40.5739 	 23.4083 	 79.88 	 
C 	 -42.7098 	 24.5601 	 81.4039 	 
H 	 -42.1067 	 23.8236 	 81.8477 	 
H 	 -43.6376 	 24.3218 	 81.9972 	 
C 	 -42.3408 	 26.0182 	 81.6845 	 
H 	 -42.0623 	 25.9891 	 82.7525 	 
H 	 -41.4449 	 26.3528 	 81.149 	 
C 	 -43.4822 	 26.9676 	 81.629 	 
H 	 -43.1149 	 27.9637 	 81.7515 	 
H 	 -44.1674 	 26.9421 	 80.7101 	 
H 	 -44.1677 	 26.7968 	 82.4734 	 
S 	 -41.4756 	 21.4182 	 76.1932 	 
C 	 -39.9382 	 21.0547 	 75.4093 	 
C 	 -38.9362 	 21.8664 	 75.9446 	 
C 	 -39.4147 	 22.8639 	 76.9139 	 
C 	 -40.7667 	 22.7227 	 77.1627 	 
H 	 -37.9267 	 21.9613 	 75.6444 	 
C 	 -38.4493 	 23.7525 	 77.6035 	 
H 	 -37.4863 	 23.2745 	 77.5385 	 
H 	 -38.8835 	 23.7221 	 78.642 	 
C 	 -38.4396 	 25.2235 	 77.0671 	 
H 	 -38.4524 	 25.0612 	 75.9863 	 
H 	 -37.4271 	 25.6592 	 77.1992 	 
C 	 -39.533 	 26.1458 	 77.5756 	 
H 	 -39.6123 	 26.2909 	 78.751 	 
H 	 -40.4995 	 25.8734 	 77.1469 	 
H 	 -39.3647 	 27.1933 	 77.2473 	 
H 	 -44.8212 	 24.6009 	 79.4059 	 
H 	 -39.8766 	 20.2167 	 74.7543 	 
