34

S 	 -5.00088 	 45.182 	 34.173 	 
C 	 -3.57958 	 44.1852 	 34.571 	 
C 	 -2.43108 	 44.8221 	 34.1376 	 
C 	 -2.64473 	 46.0654 	 33.5153 	 
C 	 -3.99363 	 46.4107 	 33.3994 	 
H 	 -2.01157 	 46.7917 	 33.0393 	 
C 	 -1.08496 	 44.0506 	 33.926 	 
H 	 -0.93745 	 43.9175 	 32.8519 	 
H 	 -1.23081 	 42.9532 	 34.3623 	 
C 	 0.111855 	 44.6376 	 34.5685 	 
H 	 0.925978 	 43.9484 	 34.2448 	 
H 	 0.30496 	 45.5937 	 34.1062 	 
C 	 0.0129326 	 44.7671 	 36.0663 	 
H 	 -0.125438 	 43.844 	 36.5072 	 
H 	 0.844395 	 45.3148 	 36.4856 	 
H 	 -0.787856 	 45.3557 	 36.4288 	 
S 	 -5.27415 	 47.3536 	 31.0768 	 
C 	 -5.62151 	 49.0607 	 30.9991 	 
C 	 -5.14196 	 49.7277 	 32.0888 	 
C 	 -4.49711 	 48.8495 	 32.9912 	 
C 	 -4.53603 	 47.5071 	 32.6072 	 
H 	 -5.08798 	 50.8132 	 32.0992 	 
C 	 -4.0402 	 49.3891 	 34.2788 	 
H 	 -4.34595 	 48.5909 	 34.9991 	 
H 	 -4.56098 	 50.2173 	 34.8068 	 
C 	 -2.52407 	 49.5398 	 34.4948 	 
H 	 -2.04556 	 48.5277 	 34.7082 	 
H 	 -2.32756 	 50.1568 	 35.353 	 
C 	 -1.91007 	 50.3187 	 33.3598 	 
H 	 -2.27571 	 51.2944 	 33.166 	 
H 	 -1.93039 	 49.7316 	 32.4599 	 
H 	 -0.902154 	 50.3835 	 33.4046 	 
H 	 -3.60666 	 43.153 	 34.8324 	 
H 	 -6.02152 	 49.5942 	 30.1192 	 
