34

S 	 -53.5757 	 46.017 	 108.688 	 
C 	 -52.9506 	 47.6154 	 109.036 	 
C 	 -53.7772 	 48.2426 	 109.965 	 
C 	 -54.881 	 47.4715 	 110.322 	 
C 	 -54.8905 	 46.2097 	 109.77 	 
H 	 -55.66 	 47.7546 	 110.987 	 
C 	 -53.5546 	 49.6821 	 110.296 	 
H 	 -52.4633 	 49.7556 	 110.29 	 
H 	 -53.7832 	 49.7206 	 111.387 	 
C 	 -54.2878 	 50.7684 	 109.557 	 
H 	 -53.8483 	 50.9856 	 108.62 	 
H 	 -55.3487 	 50.606 	 109.48 	 
C 	 -54.1767 	 52.1457 	 110.306 	 
H 	 -54.7869 	 52.2524 	 111.195 	 
H 	 -53.1432 	 52.3688 	 110.628 	 
H 	 -54.4817 	 52.8815 	 109.641 	 
S 	 -56.6493 	 44.6143 	 108.393 	 
C 	 -57.6522 	 43.3896 	 109.278 	 
C 	 -57.5701 	 43.6927 	 110.634 	 
C 	 -56.6038 	 44.6493 	 111.019 	 
C 	 -55.9812 	 45.2201 	 109.907 	 
H 	 -58.3214 	 43.1774 	 111.165 	 
C 	 -56.5209 	 45.0377 	 112.487 	 
H 	 -57.4721 	 44.8997 	 113.004 	 
H 	 -56.3482 	 46.0672 	 112.603 	 
C 	 -55.3912 	 44.2759 	 113.323 	 
H 	 -54.434 	 44.4445 	 112.802 	 
H 	 -55.5848 	 43.2061 	 113.418 	 
C 	 -55.1034 	 44.8429 	 114.782 	 
H 	 -54.3501 	 44.1996 	 115.356 	 
H 	 -55.9702 	 44.936 	 115.451 	 
H 	 -54.7188 	 45.872 	 114.853 	 
H 	 -52.0313 	 48.122 	 108.521 	 
H 	 -58.2572 	 42.5377 	 108.968 	 
