34

S 	 -26.5574 	 53.3638 	 109.404 	 
C 	 -27.8176 	 52.1213 	 109.505 	 
C 	 -28.9424 	 52.6159 	 110.213 	 
C 	 -28.7486 	 53.9742 	 110.644 	 
C 	 -27.5443 	 54.5323 	 110.283 	 
H 	 -29.4731 	 54.5339 	 111.212 	 
C 	 -30.2024 	 51.8348 	 110.51 	 
H 	 -30.5919 	 51.2603 	 109.693 	 
H 	 -30.8419 	 52.5669 	 110.886 	 
C 	 -29.9945 	 50.9162 	 111.739 	 
H 	 -30.8385 	 50.3632 	 112.004 	 
H 	 -29.1912 	 50.1565 	 111.625 	 
C 	 -29.6267 	 51.6508 	 113.029 	 
H 	 -28.6804 	 52.2416 	 112.937 	 
H 	 -30.4505 	 52.3257 	 113.295 	 
H 	 -29.4765 	 50.8976 	 113.786 	 
S 	 -26.5098 	 56.7905 	 109.254 	 
C 	 -26.0674 	 58.1229 	 110.33 	 
C 	 -26.4257 	 57.8696 	 111.676 	 
C 	 -27.045 	 56.5908 	 111.82 	 
C 	 -27.076 	 55.8335 	 110.622 	 
H 	 -26.2955 	 58.6988 	 112.29 	 
C 	 -27.3862 	 56.0499 	 113.179 	 
H 	 -28.3742 	 55.6764 	 113.37 	 
H 	 -27.6257 	 56.9367 	 113.847 	 
C 	 -26.3242 	 55.0894 	 113.809 	 
H 	 -26.1784 	 54.2167 	 113.182 	 
H 	 -26.77 	 54.6406 	 114.754 	 
C 	 -24.9747 	 55.56 	 114.083 	 
H 	 -25.0174 	 56.446 	 114.697 	 
H 	 -24.5119 	 55.9162 	 113.19 	 
H 	 -24.5227 	 54.8127 	 114.721 	 
H 	 -27.8159 	 51.1952 	 108.98 	 
H 	 -25.601 	 59.0733 	 110.047 	 
