34

S 	 -89.6636 	 41.871 	 114.48 	 
C 	 -88.62 	 42.917 	 115.515 	 
C 	 -89.1896 	 44.1301 	 115.648 	 
C 	 -90.4251 	 44.2661 	 114.964 	 
C 	 -90.8927 	 43.121 	 114.333 	 
H 	 -91.0432 	 45.144 	 115.075 	 
C 	 -88.6497 	 45.1695 	 116.644 	 
H 	 -89.1259 	 46.1304 	 116.531 	 
H 	 -87.571 	 45.3008 	 116.364 	 
C 	 -88.7827 	 44.7599 	 118.147 	 
H 	 -88.1955 	 43.909 	 118.322 	 
H 	 -88.3659 	 45.5168 	 118.849 	 
C 	 -90.1941 	 44.3183 	 118.641 	 
H 	 -90.2373 	 44.4352 	 119.711 	 
H 	 -90.9206 	 45.0773 	 118.318 	 
H 	 -90.6057 	 43.4138 	 118.181 	 
S 	 -91.8788 	 42.3607 	 111.801 	 
C 	 -93.6309 	 42.4777 	 111.577 	 
C 	 -94.2758 	 42.9737 	 112.656 	 
C 	 -93.4066 	 43.2118 	 113.759 	 
C 	 -92.0729 	 42.9548 	 113.495 	 
H 	 -95.347 	 42.9835 	 112.765 	 
C 	 -94.0509 	 43.9519 	 114.931 	 
H 	 -95.0719 	 44.089 	 114.527 	 
H 	 -93.6098 	 44.9374 	 115.017 	 
C 	 -94.1718 	 43.1635 	 116.248 	 
H 	 -93.2133 	 42.771 	 116.598 	 
H 	 -94.8848 	 42.3474 	 116.195 	 
C 	 -94.4812 	 44.1548 	 117.38 	 
H 	 -93.7474 	 44.9484 	 117.55 	 
H 	 -94.4737 	 43.5376 	 118.286 	 
H 	 -95.4663 	 44.6045 	 117.207 	 
H 	 -87.552 	 42.6723 	 115.785 	 
H 	 -94.104 	 42.0871 	 110.708 	 
