34

S 	 -1.7416 	 26.9266 	 41.8527 	 
C 	 -1.13442 	 25.5158 	 40.9643 	 
C 	 -0.0252546 	 25.8544 	 40.2067 	 
C 	 0.441023 	 27.1822 	 40.4301 	 
C 	 -0.446994 	 27.9236 	 41.2091 	 
H 	 1.21131 	 27.6311 	 39.8934 	 
C 	 0.627695 	 25.0769 	 39.1068 	 
H 	 0.0132308 	 24.1871 	 38.8188 	 
H 	 1.51003 	 24.5987 	 39.5618 	 
C 	 0.979355 	 25.945 	 37.8598 	 
H 	 0.11932 	 26.6122 	 37.5636 	 
H 	 1.79991 	 26.6164 	 38.2023 	 
C 	 1.54244 	 25.0903 	 36.6841 	 
H 	 0.827986 	 24.4433 	 36.2035 	 
H 	 2.00947 	 25.8159 	 35.9728 	 
H 	 2.43572 	 24.4674 	 37.0066 	 
S 	 -0.855462 	 29.9197 	 43.0387 	 
C 	 -0.465381 	 31.6216 	 42.6558 	 
C 	 0.105453 	 31.6885 	 41.4103 	 
C 	 0.148125 	 30.4389 	 40.7478 	 
C 	 -0.44573 	 29.4155 	 41.3879 	 
H 	 0.306412 	 32.597 	 40.9354 	 
C 	 0.590087 	 30.3054 	 39.3041 	 
H 	 -0.230799 	 29.7937 	 38.7094 	 
H 	 1.48058 	 29.6884 	 39.187 	 
C 	 0.767798 	 31.6303 	 38.5793 	 
H 	 1.54792 	 32.0792 	 39.1642 	 
H 	 -0.164469 	 32.1828 	 38.5904 	 
C 	 1.26094 	 31.4286 	 37.1296 	 
H 	 0.620265 	 30.7417 	 36.6076 	 
H 	 2.28506 	 30.943 	 37.1058 	 
H 	 1.29727 	 32.2542 	 36.4835 	 
H 	 -1.56784 	 24.5 	 40.9928 	 
H 	 -0.676933 	 32.4744 	 43.2437 	 
