34

S 	 -21.2225 	 -6.74138 	 95.4965 	 
C 	 -22.8269 	 -6.38204 	 96.0986 	 
C 	 -23.1156 	 -5.08674 	 95.8378 	 
C 	 -22.0913 	 -4.38998 	 95.1281 	 
C 	 -20.9827 	 -5.16284 	 94.8535 	 
H 	 -22.0482 	 -3.35877 	 94.774 	 
C 	 -24.3745 	 -4.39111 	 96.2186 	 
H 	 -24.8886 	 -4.87332 	 96.9831 	 
H 	 -25.0623 	 -4.54249 	 95.356 	 
C 	 -24.2717 	 -2.90248 	 96.5905 	 
H 	 -24.3244 	 -2.34826 	 95.6374 	 
H 	 -25.2264 	 -2.6081 	 97.0487 	 
C 	 -23.0353 	 -2.56765 	 97.4609 	 
H 	 -23.1135 	 -1.50212 	 97.7848 	 
H 	 -23.1169 	 -3.19509 	 98.3201 	 
H 	 -22.0618 	 -2.58967 	 97.0204 	 
S 	 -18.3602 	 -4.91218 	 95.2271 	 
C 	 -17.328 	 -4.40031 	 93.9882 	 
C 	 -18.0103 	 -3.68677 	 93.0508 	 
C 	 -19.4598 	 -3.91076 	 93.1099 	 
C 	 -19.7632 	 -4.73405 	 94.2137 	 
H 	 -17.405 	 -3.20615 	 92.2893 	 
C 	 -20.4578 	 -3.44273 	 92.0862 	 
H 	 -21.4387 	 -3.3922 	 92.5377 	 
H 	 -20.4717 	 -4.19781 	 91.3473 	 
C 	 -20.1784 	 -2.06881 	 91.5634 	 
H 	 -19.2808 	 -1.95139 	 90.9623 	 
H 	 -19.9597 	 -1.35112 	 92.3286 	 
C 	 -21.3079 	 -1.45654 	 90.7168 	 
H 	 -22.2796 	 -1.40478 	 91.2366 	 
H 	 -21.4286 	 -2.05703 	 89.7774 	 
H 	 -21.1066 	 -0.362943 	 90.5086 	 
H 	 -23.552 	 -7.06005 	 96.6138 	 
H 	 -16.2593 	 -4.35185 	 94.1213 	 
