34

S 	 -31.939 	 37.8643 	 101.238 	 
C 	 -32.3714 	 36.421 	 100.311 	 
C 	 -32.4734 	 36.7285 	 98.9455 	 
C 	 -32.2176 	 38.1337 	 98.7217 	 
C 	 -31.9923 	 38.8539 	 99.9041 	 
H 	 -32.3218 	 38.8105 	 97.8232 	 
C 	 -32.9518 	 35.811 	 97.7789 	 
H 	 -32.3462 	 34.9599 	 97.635 	 
H 	 -32.7886 	 36.3465 	 96.8154 	 
C 	 -34.433 	 35.3278 	 97.7356 	 
H 	 -34.6611 	 34.8127 	 98.7503 	 
H 	 -35.0617 	 36.2682 	 97.8413 	 
C 	 -34.9978 	 34.7023 	 96.4027 	 
H 	 -34.6815 	 35.2126 	 95.5293 	 
H 	 -34.6876 	 33.6463 	 96.2183 	 
H 	 -36.1249 	 34.7463 	 96.4268 	 
S 	 -30.0403 	 40.5154 	 99.1978 	 
C 	 -30.2354 	 42.2042 	 99.5987 	 
C 	 -31.3237 	 42.4596 	 100.365 	 
C 	 -32.1143 	 41.2843 	 100.608 	 
C 	 -31.6183 	 40.224 	 99.9094 	 
H 	 -31.5263 	 43.506 	 100.731 	 
C 	 -33.4563 	 41.2725 	 101.454 	 
H 	 -33.6766 	 42.3047 	 101.695 	 
H 	 -33.2465 	 40.6307 	 102.305 	 
C 	 -34.7356 	 40.8713 	 100.758 	 
H 	 -34.6254 	 39.8422 	 100.505 	 
H 	 -34.9069 	 41.2667 	 99.795 	 
C 	 -35.9747 	 41.1448 	 101.668 	 
H 	 -36.8326 	 40.5902 	 101.326 	 
H 	 -36.1792 	 42.2387 	 101.782 	 
H 	 -35.8669 	 40.7481 	 102.673 	 
H 	 -32.6283 	 35.4229 	 100.749 	 
H 	 -29.5273 	 42.9723 	 99.256 	 
