34

S 	 18.7281 	 -7.75076 	 83.1774 	 
C 	 18.1527 	 -8.35373 	 81.6456 	 
C 	 16.9668 	 -9.02092 	 81.7989 	 
C 	 16.6667 	 -9.18685 	 83.1724 	 
C 	 17.5536 	 -8.63785 	 84.0836 	 
H 	 15.6934 	 -9.56343 	 83.5394 	 
C 	 16.0886 	 -9.69579 	 80.708 	 
H 	 15.7796 	 -8.92042 	 79.9396 	 
H 	 15.1281 	 -9.79216 	 81.1845 	 
C 	 16.7812 	 -10.9357 	 80.0735 	 
H 	 17.7649 	 -10.6888 	 79.8141 	 
H 	 16.9942 	 -11.6955 	 80.8178 	 
C 	 16.0663 	 -11.5681 	 78.7621 	 
H 	 15.9017 	 -10.7981 	 78.0521 	 
H 	 16.7677 	 -12.3823 	 78.5244 	 
H 	 15.0899 	 -12.0587 	 78.9483 	 
S 	 15.7777 	 -8.43164 	 86.1757 	 
C 	 16.3372 	 -7.77749 	 87.6596 	 
C 	 17.7365 	 -7.71671 	 87.7388 	 
C 	 18.3674 	 -8.19451 	 86.5185 	 
C 	 17.4177 	 -8.40408 	 85.5147 	 
H 	 18.24 	 -7.39645 	 88.6469 	 
C 	 19.8966 	 -8.32525 	 86.3269 	 
H 	 20.3436 	 -7.38591 	 86.4875 	 
H 	 20.1277 	 -8.51351 	 85.2636 	 
C 	 20.5784 	 -9.44251 	 87.0509 	 
H 	 20.2506 	 -10.4627 	 86.7542 	 
H 	 20.3493 	 -9.41428 	 88.1665 	 
C 	 22.0756 	 -9.39233 	 86.7272 	 
H 	 22.5824 	 -10.1034 	 87.3688 	 
H 	 22.4071 	 -8.40855 	 87.0304 	 
H 	 22.3128 	 -9.56513 	 85.7017 	 
H 	 18.633 	 -8.19046 	 80.7085 	 
H 	 15.7317 	 -7.61708 	 88.533 	 
