34

S 	 11.3676 	 -7.79275 	 71.3705 	 
C 	 11.4563 	 -6.27023 	 72.1177 	 
C 	 10.3326 	 -5.50239 	 71.9406 	 
C 	 9.29541 	 -6.26081 	 71.2117 	 
C 	 9.6906 	 -7.48436 	 70.857 	 
H 	 8.38042 	 -5.87918 	 70.8098 	 
C 	 10.305 	 -4.03052 	 72.4465 	 
H 	 11.2281 	 -3.76289 	 72.9105 	 
H 	 9.47152 	 -4.03876 	 73.203 	 
C 	 9.99948 	 -2.89206 	 71.4249 	 
H 	 8.96886 	 -2.85372 	 71.2211 	 
H 	 10.0076 	 -1.931 	 71.8359 	 
C 	 10.7964 	 -2.8129 	 70.0804 	 
H 	 11.9085 	 -2.78358 	 70.2313 	 
H 	 10.6259 	 -3.66054 	 69.4452 	 
H 	 10.446 	 -1.90137 	 69.533 	 
S 	 9.3112 	 -9.05744 	 68.5551 	 
C 	 7.93945 	 -10.175 	 68.572 	 
C 	 7.18059 	 -10.1142 	 69.7503 	 
C 	 7.73204 	 -9.08605 	 70.5488 	 
C 	 8.89504 	 -8.50614 	 70.1924 	 
H 	 6.29686 	 -10.6844 	 69.8564 	 
C 	 7.14919 	 -8.90243 	 71.9623 	 
H 	 6.09788 	 -8.91707 	 71.7599 	 
H 	 7.31884 	 -7.89275 	 72.3566 	 
C 	 7.51181 	 -9.99208 	 72.9951 	 
H 	 8.57108 	 -9.86446 	 73.3728 	 
H 	 7.44921 	 -10.9242 	 72.4798 	 
C 	 6.64782 	 -10.1221 	 74.2449 	 
H 	 5.76361 	 -10.6498 	 73.8986 	 
H 	 6.44652 	 -9.09075 	 74.5864 	 
H 	 6.99576 	 -10.6001 	 75.1296 	 
H 	 12.3441 	 -5.92552 	 72.6042 	 
H 	 7.81277 	 -10.8953 	 67.7962 	 
