34

S 	 6.5575 	 10.7849 	 84.047 	 
C 	 7.84043 	 11.0463 	 82.9791 	 
C 	 7.48215 	 11.8351 	 81.8876 	 
C 	 6.15594 	 12.3201 	 81.9658 	 
C 	 5.47148 	 11.6679 	 82.9828 	 
H 	 5.73491 	 13.0501 	 81.2679 	 
C 	 8.50513 	 12.3434 	 80.8187 	 
H 	 8.03696 	 12.2008 	 79.8717 	 
H 	 9.45822 	 11.7726 	 80.7534 	 
C 	 8.77017 	 13.7717 	 81.023 	 
H 	 7.80413 	 14.3186 	 81.254 	 
H 	 9.40035 	 13.8241 	 81.9302 	 
C 	 9.45742 	 14.3718 	 79.8026 	 
H 	 8.77501 	 14.6813 	 79.0743 	 
H 	 9.95777 	 15.3085 	 80.1457 	 
H 	 10.1957 	 13.7057 	 79.2853 	 
S 	 2.96327 	 11.8709 	 81.8019 	 
C 	 1.56294 	 12.0076 	 82.781 	 
C 	 1.88763 	 11.8464 	 84.1159 	 
C 	 3.2801 	 11.8121 	 84.4671 	 
C 	 4.04882 	 11.817 	 83.2589 	 
H 	 1.05066 	 11.8724 	 84.8056 	 
C 	 3.81943 	 11.74 	 85.8175 	 
H 	 4.86994 	 11.461 	 85.8484 	 
H 	 3.33342 	 10.9447 	 86.3 	 
C 	 3.70092 	 13.0403 	 86.6593 	 
H 	 4.0586 	 12.961 	 87.6544 	 
H 	 2.6922 	 13.2372 	 86.9052 	 
C 	 4.24366 	 14.3894 	 86.106 	 
H 	 5.26548 	 14.1984 	 85.7718 	 
H 	 4.31821 	 15.1893 	 86.8093 	 
H 	 3.69002 	 14.7769 	 85.2284 	 
H 	 8.84467 	 10.5876 	 83.1156 	 
H 	 0.649521 	 12.2748 	 82.3599 	 
