34

S 	 -30.7626 	 73.138 	 158.164 	 
C 	 -29.9133 	 74.1587 	 159.261 	 
C 	 -29.5812 	 73.5489 	 160.452 	 
C 	 -30.1595 	 72.2344 	 160.538 	 
C 	 -30.8921 	 71.8875 	 159.382 	 
H 	 -29.966 	 71.577 	 161.4 	 
C 	 -28.6046 	 73.9503 	 161.533 	 
H 	 -29.0084 	 73.4971 	 162.445 	 
H 	 -28.6482 	 75.0556 	 161.562 	 
C 	 -27.1117 	 73.6596 	 161.36 	 
H 	 -27.0207 	 72.5504 	 161.025 	 
H 	 -26.7702 	 74.3301 	 160.615 	 
C 	 -26.2506 	 73.6871 	 162.639 	 
H 	 -25.4181 	 72.8917 	 162.685 	 
H 	 -25.9368 	 74.6864 	 162.718 	 
H 	 -26.8504 	 73.3835 	 163.532 	 
S 	 -30.8635 	 69.1249 	 159.324 	 
C 	 -32.3809 	 68.2635 	 159.064 	 
C 	 -33.4371 	 69.1136 	 159.107 	 
C 	 -33.0729 	 70.5113 	 159.179 	 
C 	 -31.6871 	 70.6659 	 159.245 	 
H 	 -34.3901 	 68.6512 	 159.046 	 
C 	 -34.1044 	 71.642 	 159.261 	 
H 	 -33.5935 	 72.572 	 158.904 	 
H 	 -34.2892 	 71.9442 	 160.265 	 
C 	 -35.407 	 71.4156 	 158.516 	 
H 	 -36.1237 	 72.2363 	 158.651 	 
H 	 -35.94 	 70.5886 	 158.941 	 
C 	 -35.2317 	 71.0145 	 156.989 	 
H 	 -34.6154 	 70.1526 	 156.929 	 
H 	 -34.6902 	 71.6608 	 156.292 	 
H 	 -36.2235 	 70.7393 	 156.487 	 
H 	 -29.548 	 75.1763 	 159.024 	 
H 	 -32.3983 	 67.105 	 159.146 	 
