34

S 	 38.7522 	 16.8323 	 49.9555 	 
C 	 39.0698 	 18.0185 	 51.1961 	 
C 	 40.3971 	 18.0354 	 51.6143 	 
C 	 41.1478 	 17.0397 	 50.9452 	 
C 	 40.4072 	 16.2297 	 50.0268 	 
H 	 42.1662 	 16.8034 	 51.0281 	 
C 	 40.9512 	 18.7538 	 52.7696 	 
H 	 41.1864 	 19.6638 	 52.2732 	 
H 	 41.8844 	 18.3938 	 53.0472 	 
C 	 40.07 	 18.861 	 53.9975 	 
H 	 40.6706 	 19.3457 	 54.7444 	 
H 	 39.2805 	 19.4612 	 53.7386 	 
C 	 39.7088 	 17.436 	 54.4561 	 
H 	 39.052 	 17.423 	 55.3445 	 
H 	 39.1326 	 16.9661 	 53.7341 	 
H 	 40.5825 	 16.8474 	 54.6036 	 
S 	 39.747 	 13.6889 	 49.2643 	 
C 	 40.8908 	 12.5686 	 48.6779 	 
C 	 42.1123 	 13.1704 	 48.4761 	 
C 	 42.1944 	 14.4658 	 49.0724 	 
C 	 40.9436 	 14.9924 	 49.4236 	 
H 	 42.8509 	 12.6629 	 47.9144 	 
C 	 43.4718 	 15.2141 	 49.0591 	 
H 	 44.31 	 14.6551 	 49.5596 	 
H 	 43.519 	 16.1191 	 49.6224 	 
C 	 44.0487 	 15.5211 	 47.6403 	 
H 	 43.9952 	 14.6028 	 46.9922 	 
H 	 45.0989 	 15.9819 	 47.6639 	 
C 	 43.2557 	 16.6783 	 47.0921 	 
H 	 43.4745 	 17.5391 	 47.7269 	 
H 	 42.1255 	 16.5027 	 47.083 	 
H 	 43.6202 	 16.9156 	 46.0709 	 
H 	 38.278 	 18.5762 	 51.7378 	 
H 	 40.6515 	 11.5144 	 48.3398 	 
