34

S 	 -37.1264 	 59.8451 	 103.234 	 
C 	 -38.5927 	 58.9727 	 103.287 	 
C 	 -38.4663 	 57.8688 	 104.12 	 
C 	 -37.2327 	 57.8186 	 104.832 	 
C 	 -36.3611 	 58.8394 	 104.472 	 
H 	 -37.0234 	 57.051 	 105.599 	 
C 	 -39.5495 	 56.7676 	 104.253 	 
H 	 -40.3387 	 57.0339 	 103.577 	 
H 	 -40.0469 	 56.7569 	 105.206 	 
C 	 -39.0618 	 55.3667 	 103.911 	 
H 	 -38.4818 	 54.963 	 104.746 	 
H 	 -39.9678 	 54.7669 	 103.762 	 
C 	 -38.1138 	 55.2156 	 102.724 	 
H 	 -37.1384 	 55.6226 	 102.931 	 
H 	 -38.1053 	 54.1756 	 102.509 	 
H 	 -38.5082 	 55.6321 	 101.795 	 
S 	 -34.5937 	 58.8191 	 106.607 	 
C 	 -32.8504 	 59.0037 	 106.25 	 
C 	 -32.6338 	 59.0241 	 104.859 	 
C 	 -33.8395 	 58.9384 	 104.074 	 
C 	 -34.9614 	 58.9634 	 104.85 	 
H 	 -31.6188 	 59.0162 	 104.44 	 
C 	 -33.8359 	 58.9724 	 102.583 	 
H 	 -32.883 	 59.241 	 102.209 	 
H 	 -34.5149 	 59.817 	 102.357 	 
C 	 -34.2141 	 57.6601 	 101.847 	 
H 	 -35.3407 	 57.615 	 101.926 	 
H 	 -33.8259 	 56.8971 	 102.455 	 
C 	 -33.7113 	 57.6403 	 100.399 	 
H 	 -32.6608 	 57.4366 	 100.334 	 
H 	 -33.9628 	 58.5607 	 99.9314 	 
H 	 -34.2561 	 56.8451 	 99.9227 	 
H 	 -39.3648 	 59.1859 	 102.541 	 
H 	 -32.0524 	 58.8484 	 106.994 	 
