34

S 	 40.9383 	 17.9955 	 48.091 	 
C 	 41.6044 	 17.729 	 46.5119 	 
C 	 42.6455 	 18.6192 	 46.2546 	 
C 	 42.9074 	 19.4738 	 47.3487 	 
C 	 42.0293 	 19.37 	 48.3574 	 
H 	 43.6792 	 20.1535 	 47.3594 	 
C 	 43.5398 	 18.7294 	 45.0269 	 
H 	 44.0002 	 17.8025 	 44.7318 	 
H 	 44.4258 	 19.2118 	 45.2088 	 
C 	 42.8137 	 19.3742 	 43.7894 	 
H 	 42.6863 	 20.4146 	 43.974 	 
H 	 43.5892 	 19.2991 	 43.0811 	 
C 	 41.5559 	 18.6726 	 43.224 	 
H 	 41.2608 	 19.1604 	 42.2633 	 
H 	 41.7815 	 17.6057 	 43.0145 	 
H 	 40.8045 	 18.7633 	 43.9832 	 
S 	 43.4219 	 20.4499 	 50.4253 	 
C 	 42.7078 	 21.795 	 51.2316 	 
C 	 41.3935 	 21.9796 	 51.0356 	 
C 	 40.894 	 21.0346 	 50.0707 	 
C 	 41.9502 	 20.2557 	 49.5201 	 
H 	 40.83 	 22.7777 	 51.5499 	 
C 	 39.4953 	 21.2094 	 49.5547 	 
H 	 38.7907 	 21.4286 	 50.4017 	 
H 	 39.1618 	 20.248 	 49.1194 	 
C 	 39.3277 	 22.2848 	 48.4844 	 
H 	 39.87 	 23.1811 	 48.6256 	 
H 	 38.2918 	 22.529 	 48.3965 	 
C 	 39.636 	 21.8775 	 47.1025 	 
H 	 40.7173 	 21.756 	 47.0674 	 
H 	 39.2744 	 22.6163 	 46.3743 	 
H 	 39.183 	 20.8735 	 46.9227 	 
H 	 41.2666 	 17.0096 	 45.7748 	 
H 	 43.3206 	 22.3623 	 51.9607 	 
