34

S 	 -24.8916 	 -3.71721 	 98.6155 	 
C 	 -24.3332 	 -3.54837 	 100.275 	 
C 	 -25.3126 	 -3.08429 	 101.114 	 
C 	 -26.5722 	 -3.11352 	 100.421 	 
C 	 -26.5864 	 -3.49926 	 99.1137 	 
H 	 -27.5381 	 -2.83635 	 100.849 	 
C 	 -25.1553 	 -2.79919 	 102.633 	 
H 	 -25.6301 	 -1.91042 	 102.874 	 
H 	 -24.0911 	 -2.66576 	 102.592 	 
C 	 -25.6395 	 -3.81263 	 103.737 	 
H 	 -25.115 	 -4.76289 	 103.763 	 
H 	 -25.5572 	 -3.37648 	 104.725 	 
C 	 -27.1635 	 -4.1743 	 103.644 	 
H 	 -27.4562 	 -4.58586 	 102.702 	 
H 	 -27.5169 	 -4.91716 	 104.326 	 
H 	 -27.8498 	 -3.36967 	 103.829 	 
S 	 -27.54 	 -2.57974 	 96.6775 	 
C 	 -29.216 	 -2.89553 	 96.2856 	 
C 	 -29.8632 	 -3.48676 	 97.3427 	 
C 	 -28.9518 	 -4.01134 	 98.3368 	 
C 	 -27.6408 	 -3.53825 	 98.1112 	 
H 	 -30.9495 	 -3.41174 	 97.1944 	 
C 	 -29.564 	 -4.56758 	 99.5772 	 
H 	 -28.7311 	 -5.02895 	 100.132 	 
H 	 -30.2322 	 -5.32617 	 99.3132 	 
C 	 -30.3099 	 -3.62258 	 100.489 	 
H 	 -31.1883 	 -3.22789 	 99.9465 	 
H 	 -29.8275 	 -2.69549 	 100.691 	 
C 	 -30.751 	 -4.31048 	 101.806 	 
H 	 -29.9405 	 -4.80516 	 102.378 	 
H 	 -31.5727 	 -5.01813 	 101.695 	 
H 	 -31.0831 	 -3.58078 	 102.536 	 
H 	 -23.247 	 -3.50844 	 100.456 	 
H 	 -29.7286 	 -2.4119 	 95.44 	 
