34

S 	 11.2425 	 -5.31643 	 92.1969 	 
C 	 10.1147 	 -5.87363 	 93.4489 	 
C 	 9.86469 	 -7.19784 	 93.3016 	 
C 	 10.445 	 -7.74078 	 92.1144 	 
C 	 11.18 	 -6.82725 	 91.3766 	 
H 	 10.4343 	 -8.79963 	 91.9236 	 
C 	 8.89658 	 -7.99956 	 94.1716 	 
H 	 9.47266 	 -8.3938 	 95.065 	 
H 	 8.59181 	 -8.98287 	 93.6648 	 
C 	 7.66446 	 -7.20739 	 94.713 	 
H 	 7.9408 	 -6.39955 	 95.3072 	 
H 	 7.08482 	 -6.64213 	 93.9946 	 
C 	 6.64089 	 -8.12289 	 95.5324 	 
H 	 7.17119 	 -8.72903 	 96.2342 	 
H 	 5.96019 	 -7.57712 	 96.1254 	 
H 	 6.11067 	 -8.72383 	 94.8383 	 
S 	 13.6192 	 -6.47992 	 90.1871 	 
C 	 14.1946 	 -7.61614 	 88.9931 	 
C 	 13.1665 	 -8.27643 	 88.5057 	 
C 	 11.887 	 -8.08869 	 89.1365 	 
C 	 12.0045 	 -7.11351 	 90.1754 	 
H 	 13.2683 	 -8.95591 	 87.6221 	 
C 	 10.7234 	 -8.90811 	 88.5903 	 
H 	 10.4725 	 -9.56088 	 89.4693 	 
H 	 10.9844 	 -9.59407 	 87.7688 	 
C 	 9.51899 	 -8.08287 	 88.2248 	 
H 	 9.70904 	 -7.60165 	 87.226 	 
H 	 9.34495 	 -7.25498 	 88.9008 	 
C 	 8.23587 	 -8.96947 	 88.151 	 
H 	 7.34189 	 -8.38737 	 87.8605 	 
H 	 7.9264 	 -9.19139 	 89.15 	 
H 	 8.31778 	 -9.855 	 87.4942 	 
H 	 9.6801 	 -5.28774 	 94.2495 	 
H 	 15.2483 	 -7.89312 	 88.8352 	 
