34

S 	 -65.0231 	 41.0216 	 124.516 	 
C 	 -66.2399 	 42.2098 	 123.917 	 
C 	 -67.5126 	 41.8326 	 124.25 	 
C 	 -67.55 	 40.5705 	 124.915 	 
C 	 -66.3551 	 40.0507 	 125.212 	 
H 	 -68.4739 	 40.1459 	 125.139 	 
C 	 -68.6963 	 42.6636 	 123.933 	 
H 	 -68.4416 	 43.4002 	 123.225 	 
H 	 -68.9285 	 43.2396 	 124.838 	 
C 	 -70.0833 	 42.043 	 123.469 	 
H 	 -69.8065 	 41.5074 	 122.549 	 
H 	 -70.612 	 41.3921 	 124.155 	 
C 	 -71.0452 	 43.1295 	 122.979 	 
H 	 -71.4215 	 43.8473 	 123.712 	 
H 	 -70.6269 	 43.6922 	 122.139 	 
H 	 -72.0242 	 42.6821 	 122.589 	 
S 	 -65.0729 	 37.5813 	 125.432 	 
C 	 -65.3888 	 36.5584 	 126.872 	 
C 	 -66.2725 	 37.1922 	 127.689 	 
C 	 -66.7838 	 38.4059 	 127.15 	 
C 	 -66.217 	 38.8637 	 125.993 	 
H 	 -66.3715 	 36.7765 	 128.635 	 
C 	 -67.7108 	 39.2067 	 128.075 	 
H 	 -68.5567 	 38.4749 	 128.316 	 
H 	 -68.2481 	 40.1185 	 127.573 	 
C 	 -67.0368 	 39.9508 	 129.286 	 
H 	 -66.2847 	 40.5981 	 128.956 	 
H 	 -66.4712 	 39.1937 	 129.859 	 
C 	 -67.9814 	 40.5414 	 130.366 	 
H 	 -68.7443 	 41.1496 	 130.004 	 
H 	 -67.5679 	 41.0194 	 131.266 	 
H 	 -68.5214 	 39.6533 	 130.752 	 
H 	 -66.0266 	 43.1376 	 123.48 	 
H 	 -64.8053 	 35.7614 	 127.114 	 
