34

S 	 41.8224 	 12.5969 	 85.1686 	 
C 	 41.5956 	 10.8108 	 85.29 	 
C 	 42.8263 	 10.1498 	 84.9659 	 
C 	 43.8595 	 11.1061 	 84.632 	 
C 	 43.4821 	 12.4285 	 84.7035 	 
H 	 44.9246 	 10.9518 	 84.3425 	 
C 	 43.2086 	 8.68159 	 85.011 	 
H 	 43.9202 	 8.5191 	 84.2328 	 
H 	 42.3891 	 8.20593 	 84.5141 	 
C 	 43.6584 	 8.04552 	 86.2863 	 
H 	 44.21 	 7.16006 	 86.0503 	 
H 	 44.3159 	 8.74215 	 86.7846 	 
C 	 42.4953 	 7.59607 	 87.1393 	 
H 	 41.9432 	 8.51773 	 87.2989 	 
H 	 41.9001 	 6.82566 	 86.6567 	 
H 	 42.8185 	 7.19662 	 88.1237 	 
S 	 44.0161 	 14.6554 	 83.067 	 
C 	 45.4887 	 15.5579 	 83.2531 	 
C 	 46.2345 	 15.0046 	 84.2601 	 
C 	 45.6636 	 13.8646 	 84.8981 	 
C 	 44.3618 	 13.567 	 84.3454 	 
H 	 47.1628 	 15.5155 	 84.6098 	 
C 	 46.2627 	 13.0853 	 86.0489 	 
H 	 47.2967 	 12.8855 	 85.7514 	 
H 	 45.8055 	 12.049 	 86.1118 	 
C 	 46.1861 	 13.8018 	 87.4386 	 
H 	 46.9537 	 14.5415 	 87.3952 	 
H 	 46.4681 	 13.036 	 88.2309 	 
C 	 44.8524 	 14.3978 	 87.7058 	 
H 	 44.9245 	 14.9185 	 88.723 	 
H 	 44.0516 	 13.6987 	 87.7105 	 
H 	 44.5515 	 15.1855 	 87.0318 	 
H 	 40.7569 	 10.2246 	 85.6496 	 
H 	 45.8161 	 16.4591 	 82.6724 	 
