34

S 	 -58.4765 	 51.6311 	 127.274 	 
C 	 -59.3413 	 50.072 	 127.381 	 
C 	 -59.1652 	 49.3166 	 126.246 	 
C 	 -58.3131 	 49.9952 	 125.333 	 
C 	 -57.8334 	 51.183 	 125.733 	 
H 	 -58.0901 	 49.6711 	 124.319 	 
C 	 -59.7449 	 47.9516 	 125.971 	 
H 	 -59.0669 	 47.1833 	 126.376 	 
H 	 -59.8816 	 47.7061 	 124.943 	 
C 	 -61.1382 	 47.7601 	 126.566 	 
H 	 -61.1806 	 48.0033 	 127.642 	 
H 	 -61.7804 	 48.4604 	 125.972 	 
C 	 -61.6601 	 46.3013 	 126.506 	 
H 	 -60.9223 	 45.5938 	 126.885 	 
H 	 -62.5889 	 46.3469 	 127.093 	 
H 	 -61.9586 	 45.9544 	 125.503 	 
S 	 -57.851 	 53.4925 	 124.274 	 
C 	 -56.4745 	 53.9706 	 123.258 	 
C 	 -55.5268 	 52.9829 	 123.364 	 
C 	 -55.8482 	 51.8893 	 124.221 	 
C 	 -57.021 	 52.0884 	 124.898 	 
H 	 -54.6845 	 53.0657 	 122.734 	 
C 	 -54.9378 	 50.7257 	 124.565 	 
H 	 -55.4194 	 49.952 	 125.15 	 
H 	 -54.2418 	 51.1937 	 125.205 	 
C 	 -54.1003 	 50.0824 	 123.409 	 
H 	 -53.1286 	 49.718 	 123.777 	 
H 	 -53.9883 	 50.8045 	 122.59 	 
C 	 -54.7376 	 48.747 	 122.796 	 
H 	 -55.8025 	 48.8354 	 122.642 	 
H 	 -54.6513 	 47.8592 	 123.329 	 
H 	 -54.3361 	 48.5159 	 121.773 	 
H 	 -59.913 	 49.6145 	 128.206 	 
H 	 -56.3743 	 54.7497 	 122.528 	 
