34

S 	 11.4078 	 -9.76563 	 93.518 	 
C 	 10.7951 	 -8.40304 	 94.4728 	 
C 	 9.45704 	 -8.6131 	 94.806 	 
C 	 8.93056 	 -9.79138 	 94.2186 	 
C 	 9.87011 	 -10.6294 	 93.608 	 
H 	 7.88942 	 -10.0906 	 94.1391 	 
C 	 8.50636 	 -7.51312 	 95.3967 	 
H 	 7.53803 	 -7.648 	 95.0202 	 
H 	 8.81448 	 -6.61284 	 94.8946 	 
C 	 8.45785 	 -7.31178 	 96.9261 	 
H 	 7.77656 	 -6.5302 	 97.1572 	 
H 	 8.05271 	 -8.19672 	 97.4539 	 
C 	 9.8249 	 -6.99961 	 97.4479 	 
H 	 10.412 	 -6.20882 	 96.9396 	 
H 	 9.86153 	 -6.89258 	 98.5552 	 
H 	 10.4436 	 -7.89797 	 97.266 	 
S 	 10.1602 	 -11.7988 	 91.1865 	 
C 	 9.81618 	 -13.5494 	 90.9294 	 
C 	 8.86548 	 -13.9551 	 91.9149 	 
C 	 8.71221 	 -12.9373 	 92.9538 	 
C 	 9.57612 	 -11.8297 	 92.8229 	 
H 	 8.50609 	 -14.8836 	 91.922 	 
C 	 7.81138 	 -13.1468 	 94.122 	 
H 	 8.03529 	 -12.426 	 94.9421 	 
H 	 8.04319 	 -14.141 	 94.4496 	 
C 	 6.28803 	 -13.0817 	 93.7744 	 
H 	 5.9795 	 -13.3879 	 92.7305 	 
H 	 5.96055 	 -12.0782 	 93.9033 	 
C 	 5.39995 	 -13.8902 	 94.715 	 
H 	 4.42925 	 -13.5033 	 94.5822 	 
H 	 5.54896 	 -13.6429 	 95.7296 	 
H 	 5.46128 	 -14.9601 	 94.5798 	 
H 	 11.2947 	 -7.51374 	 94.7279 	 
H 	 10.0916 	 -14.2806 	 90.1674 	 
