34

S 	 61.1011 	 6.51003 	 79.463 	 
C 	 59.575 	 7.3136 	 79.7863 	 
C 	 58.6923 	 7.18274 	 78.755 	 
C 	 59.2548 	 6.60157 	 77.6052 	 
C 	 60.6035 	 6.21411 	 77.8419 	 
H 	 58.7295 	 6.31818 	 76.7087 	 
C 	 57.3052 	 7.7645 	 78.7384 	 
H 	 56.8462 	 7.61097 	 77.7801 	 
H 	 57.4049 	 8.83976 	 79.0325 	 
C 	 56.3913 	 7.30082 	 79.8716 	 
H 	 56.0531 	 6.28939 	 79.7392 	 
H 	 56.9712 	 7.37921 	 80.8029 	 
C 	 55.03 	 8.01587 	 79.9604 	 
H 	 55.1677 	 9.13323 	 79.7329 	 
H 	 54.4391 	 7.58112 	 79.1429 	 
H 	 54.5004 	 7.89209 	 80.9088 	 
S 	 61.4299 	 3.73716 	 77.3076 	 
C 	 62.331 	 3.39079 	 75.8881 	 
C 	 62.5653 	 4.56548 	 75.2338 	 
C 	 62.1757 	 5.76412 	 75.9235 	 
C 	 61.4105 	 5.40432 	 77.0144 	 
H 	 63.1776 	 4.61689 	 74.2937 	 
C 	 62.3204 	 7.2024 	 75.4233 	 
H 	 63.2243 	 7.2604 	 74.7691 	 
H 	 62.448 	 7.93864 	 76.2914 	 
C 	 61.1628 	 7.69661 	 74.5172 	 
H 	 60.2382 	 7.88578 	 75.0286 	 
H 	 60.8772 	 7.06586 	 73.626 	 
C 	 61.4944 	 9.08426 	 74.0231 	 
H 	 60.7724 	 9.55698 	 73.354 	 
H 	 62.3995 	 9.06376 	 73.4801 	 
H 	 61.6274 	 9.74088 	 74.8825 	 
H 	 59.3152 	 7.78729 	 80.7115 	 
H 	 62.4448 	 2.40912 	 75.4331 	 
