34

S 	 9.51867 	 -12.8114 	 95.146 	 
C 	 10.9251 	 -12.6975 	 94.0379 	 
C 	 10.5546 	 -12.0082 	 92.8838 	 
C 	 9.19551 	 -11.4788 	 93.0545 	 
C 	 8.37636 	 -12.0429 	 94.041 	 
H 	 8.67054 	 -10.8294 	 92.4771 	 
C 	 11.3576 	 -11.7722 	 91.62 	 
H 	 12.1871 	 -11.0472 	 91.8568 	 
H 	 10.7041 	 -11.3777 	 90.8326 	 
C 	 12.0848 	 -13.0814 	 91.2061 	 
H 	 12.8142 	 -12.8456 	 90.4739 	 
H 	 12.6251 	 -13.631 	 92.0325 	 
C 	 11.1681 	 -14.02 	 90.4442 	 
H 	 10.6731 	 -13.6145 	 89.584 	 
H 	 11.789 	 -14.814 	 90.0432 	 
H 	 10.3347 	 -14.4714 	 91.0295 	 
S 	 6.57462 	 -11.3976 	 95.9951 	 
C 	 4.82823 	 -11.6443 	 95.749 	 
C 	 4.70147 	 -12.0999 	 94.4911 	 
C 	 5.84409 	 -12.235 	 93.6177 	 
C 	 6.97937 	 -11.951 	 94.3919 	 
H 	 3.6147 	 -12.4581 	 94.4252 	 
C 	 5.83354 	 -12.807 	 92.2302 	 
H 	 5.07001 	 -13.5196 	 92.0092 	 
H 	 6.69287 	 -13.4774 	 92.1403 	 
C 	 5.92976 	 -11.7552 	 91.1443 	 
H 	 6.88985 	 -11.2007 	 91.2224 	 
H 	 5.17952 	 -10.9738 	 91.2007 	 
C 	 5.81216 	 -12.4319 	 89.7974 	 
H 	 6.60594 	 -13.1496 	 89.6297 	 
H 	 5.85066 	 -11.7405 	 88.9377 	 
H 	 4.85398 	 -12.9534 	 89.7719 	 
H 	 11.8581 	 -13.1625 	 94.2741 	 
H 	 3.89438 	 -11.5663 	 96.3519 	 
