34

S 	 -95.3257 	 51.4776 	 123.021 	 
C 	 -96.6476 	 51.4821 	 121.908 	 
C 	 -97.8682 	 51.1381 	 122.465 	 
C 	 -97.7006 	 50.6917 	 123.786 	 
C 	 -96.382 	 50.7815 	 124.216 	 
H 	 -98.3911 	 50.2045 	 124.384 	 
C 	 -99.1633 	 50.8587 	 121.74 	 
H 	 -99.4662 	 49.8763 	 122.164 	 
H 	 -98.8986 	 50.7881 	 120.691 	 
C 	 -100.34 	 51.8852 	 121.956 	 
H 	 -100.674 	 51.667 	 122.958 	 
H 	 -100.201 	 52.9807 	 121.916 	 
C 	 -101.562 	 51.5206 	 121.128 	 
H 	 -101.548 	 52.1198 	 120.13 	 
H 	 -101.683 	 50.4448 	 120.948 	 
H 	 -102.473 	 51.8625 	 121.648 	 
S 	 -94.4551 	 49.3307 	 125.15 	 
C 	 -94.364 	 49.1274 	 126.922 	 
C 	 -95.2989 	 49.8575 	 127.631 	 
C 	 -96.1654 	 50.5356 	 126.771 	 
C 	 -95.9411 	 50.2335 	 125.426 	 
H 	 -95.1917 	 49.9622 	 128.655 	 
C 	 -97.1405 	 51.5766 	 127.277 	 
H 	 -97.1769 	 52.2789 	 126.48 	 
H 	 -96.6747 	 52.1773 	 128.09 	 
C 	 -98.6224 	 51.1944 	 127.658 	 
H 	 -98.6031 	 50.3174 	 128.314 	 
H 	 -99.0088 	 50.8435 	 126.742 	 
C 	 -99.4091 	 52.4795 	 128.105 	 
H 	 -99.0804 	 53.3931 	 127.533 	 
H 	 -99.0908 	 52.8042 	 129.117 	 
H 	 -100.458 	 52.4319 	 127.946 	 
H 	 -96.5831 	 51.8089 	 120.886 	 
H 	 -93.6591 	 48.5525 	 127.482 	 
