34

S 	 -32.6717 	 34.4601 	 38.7959 	 
C 	 -32.3242 	 35.7685 	 37.6941 	 
C 	 -31.2398 	 36.5261 	 38.1297 	 
C 	 -30.6031 	 35.9849 	 39.2926 	 
C 	 -31.2044 	 34.8577 	 39.8225 	 
H 	 -29.7632 	 36.5085 	 39.7499 	 
C 	 -30.7848 	 37.7251 	 37.4423 	 
H 	 -31.5114 	 38.374 	 37.864 	 
H 	 -31.0622 	 37.8865 	 36.396 	 
C 	 -29.3109 	 38.101 	 37.573 	 
H 	 -29.1367 	 39.0511 	 36.9741 	 
H 	 -29.013 	 38.2691 	 38.5452 	 
C 	 -28.3612 	 36.9903 	 37.0244 	 
H 	 -28.3699 	 37.0016 	 35.9325 	 
H 	 -27.3353 	 37.2365 	 37.3726 	 
H 	 -28.6275 	 35.9914 	 37.3828 	 
S 	 -30.4074 	 32.4287 	 40.8427 	 
C 	 -29.916 	 32.3326 	 42.4797 	 
C 	 -29.7293 	 33.5497 	 43.0283 	 
C 	 -30.1815 	 34.6535 	 42.234 	 
C 	 -30.7266 	 34.1673 	 41.0289 	 
H 	 -29.2557 	 33.7044 	 43.9851 	 
C 	 -30.2518 	 36.0418 	 42.863 	 
H 	 -30.952 	 35.8229 	 43.7344 	 
H 	 -30.6958 	 36.738 	 42.1741 	 
C 	 -28.9852 	 36.6953 	 43.4655 	 
H 	 -28.7206 	 36.2383 	 44.4432 	 
H 	 -29.1168 	 37.767 	 43.509 	 
C 	 -27.802 	 36.4433 	 42.528 	 
H 	 -26.911 	 36.8898 	 43.0199 	 
H 	 -27.9472 	 36.9278 	 41.5732 	 
H 	 -27.7624 	 35.4331 	 42.218 	 
H 	 -32.8989 	 36.0673 	 36.7996 	 
H 	 -29.5906 	 31.3887 	 42.8622 	 
