34

S 	 -9.42766 	 67.0801 	 52.6369 	 
C 	 -10.0899 	 65.5 	 52.4493 	 
C 	 -9.67075 	 64.5862 	 53.3646 	 
C 	 -8.81009 	 65.2415 	 54.3431 	 
C 	 -8.61208 	 66.5726 	 54.0654 	 
H 	 -8.25872 	 64.7956 	 55.1033 	 
C 	 -10.3368 	 63.2036 	 53.5977 	 
H 	 -10.5038 	 62.8171 	 52.639 	 
H 	 -11.3463 	 63.2979 	 54.0099 	 
C 	 -9.51079 	 62.2008 	 54.5202 	 
H 	 -8.5745 	 61.9317 	 54.0103 	 
H 	 -9.07071 	 62.7684 	 55.3054 	 
C 	 -10.3285 	 60.933 	 54.9273 	 
H 	 -11.1036 	 60.643 	 54.2552 	 
H 	 -9.7983 	 60.0414 	 55.1195 	 
H 	 -10.8586 	 61.1081 	 55.77 	 
S 	 -6.484 	 68.3199 	 53.8747 	 
C 	 -5.94908 	 69.3118 	 55.2049 	 
C 	 -6.76774 	 69.0107 	 56.3268 	 
C 	 -7.82029 	 68.0426 	 56.0884 	 
C 	 -7.79893 	 67.5581 	 54.7741 	 
H 	 -6.41468 	 69.5987 	 57.2508 	 
C 	 -8.87603 	 67.6928 	 57.0497 	 
H 	 -8.49288 	 67.5344 	 58.0566 	 
H 	 -9.20009 	 66.7198 	 56.6966 	 
C 	 -10.0382 	 68.671 	 57.0608 	 
H 	 -10.3663 	 68.6124 	 56.0514 	 
H 	 -9.7028 	 69.7288 	 57.3302 	 
C 	 -11.2082 	 68.2147 	 57.9347 	 
H 	 -10.8435 	 67.9484 	 58.8586 	 
H 	 -11.733 	 67.3154 	 57.7143 	 
H 	 -11.9381 	 68.9769 	 58.2196 	 
H 	 -10.8887 	 65.3236 	 51.7154 	 
H 	 -5.04568 	 69.952 	 55.3046 	 
