34

S 	 -14.9545 	 38.9992 	 40.5519 	 
C 	 -14.1957 	 40.3233 	 39.6539 	 
C 	 -13.0104 	 39.8759 	 39.0824 	 
C 	 -12.6124 	 38.6034 	 39.6604 	 
C 	 -13.5542 	 38.0271 	 40.4694 	 
H 	 -11.7302 	 38.0452 	 39.464 	 
C 	 -12.1515 	 40.6631 	 38.1797 	 
H 	 -11.1449 	 40.175 	 38.386 	 
H 	 -12.1417 	 41.714 	 38.5168 	 
C 	 -12.5018 	 40.5986 	 36.6663 	 
H 	 -13.356 	 41.256 	 36.5865 	 
H 	 -11.6724 	 41.0092 	 36.0238 	 
C 	 -12.7382 	 39.1424 	 36.095 	 
H 	 -13.5173 	 38.5482 	 36.6224 	 
H 	 -12.9472 	 39.0548 	 35.0541 	 
H 	 -11.8876 	 38.57 	 36.2909 	 
S 	 -13.02 	 36.6055 	 42.7492 	 
C 	 -13.2118 	 34.891 	 42.6347 	 
C 	 -13.5033 	 34.3638 	 41.4092 	 
C 	 -13.7191 	 35.4392 	 40.4629 	 
C 	 -13.494 	 36.7123 	 41.1033 	 
H 	 -13.6186 	 33.4033 	 41.2061 	 
C 	 -14.1882 	 35.2342 	 39.0563 	 
H 	 -13.9832 	 36.1121 	 38.4851 	 
H 	 -15.2124 	 34.9884 	 39.1152 	 
C 	 -13.4304 	 34.1476 	 38.3039 	 
H 	 -13.5571 	 33.272 	 38.9129 	 
H 	 -12.3318 	 34.3883 	 38.3161 	 
C 	 -14.0496 	 33.9999 	 36.9323 	 
H 	 -14.4939 	 34.8684 	 36.5156 	 
H 	 -14.9751 	 33.2787 	 36.9875 	 
H 	 -13.2593 	 33.4848 	 36.349 	 
H 	 -14.6494 	 41.2275 	 39.2026 	 
H 	 -13.1717 	 34.2673 	 43.5453 	 
