34

S 	 -43.8026 	 51.6842 	 103.121 	 
C 	 -44.4664 	 51.1811 	 101.625 	 
C 	 -43.585 	 51.325 	 100.533 	 
C 	 -42.3911 	 52.0126 	 100.916 	 
C 	 -42.3677 	 52.3114 	 102.279 	 
H 	 -41.6537 	 52.4508 	 100.247 	 
C 	 -44.12 	 51.0154 	 99.0854 	 
H 	 -43.7412 	 51.8018 	 98.332 	 
H 	 -45.1626 	 50.966 	 99.1886 	 
C 	 -43.658 	 49.7475 	 98.4953 	 
H 	 -43.7728 	 49.7162 	 97.4024 	 
H 	 -42.6347 	 49.6713 	 98.644 	 
C 	 -44.406 	 48.5155 	 99.0707 	 
H 	 -44.1182 	 47.5278 	 98.6093 	 
H 	 -44.0733 	 48.3884 	 100.1 	 
H 	 -45.5078 	 48.6134 	 99.0001 	 
S 	 -41.8419 	 53.9814 	 104.331 	 
C 	 -40.2995 	 54.7462 	 104.602 	 
C 	 -39.5589 	 54.4303 	 103.533 	 
C 	 -40.1012 	 53.5527 	 102.557 	 
C 	 -41.3904 	 53.1888 	 102.894 	 
H 	 -38.6033 	 55.0074 	 103.504 	 
C 	 -39.2776 	 53.1577 	 101.291 	 
H 	 -39.7505 	 53.6312 	 100.428 	 
H 	 -39.3883 	 52.0616 	 101.259 	 
C 	 -37.8463 	 53.5966 	 101.187 	 
H 	 -37.3004 	 53.2713 	 102.087 	 
H 	 -37.7683 	 54.6961 	 101.096 	 
C 	 -37.1264 	 52.9045 	 99.9964 	 
H 	 -37.6871 	 52.6703 	 99.1847 	 
H 	 -36.6859 	 51.9572 	 100.405 	 
H 	 -36.2173 	 53.3932 	 99.5042 	 
H 	 -45.4849 	 50.854 	 101.469 	 
H 	 -40.2488 	 55.5936 	 105.322 	 
