34

S 	 -58.561 	 42.1091 	 115.543 	 
C 	 -58.6663 	 42.5192 	 113.936 	 
C 	 -57.547 	 42.1369 	 113.205 	 
C 	 -56.7234 	 41.3171 	 114.063 	 
C 	 -57.0957 	 41.2382 	 115.402 	 
H 	 -55.8205 	 40.816 	 113.683 	 
C 	 -57.374 	 42.3152 	 111.672 	 
H 	 -56.6785 	 41.5459 	 111.34 	 
H 	 -57.046 	 43.371 	 111.517 	 
C 	 -58.6321 	 41.9498 	 110.938 	 
H 	 -59.0296 	 40.9824 	 111.305 	 
H 	 -59.3406 	 42.6976 	 111.219 	 
C 	 -58.4692 	 41.9408 	 109.363 	 
H 	 -59.4466 	 41.9908 	 108.905 	 
H 	 -57.9433 	 42.831 	 109.141 	 
H 	 -57.9535 	 41.1675 	 108.94 	 
S 	 -55.7408 	 42.2459 	 117.601 	 
C 	 -54.7071 	 41.1694 	 118.401 	 
C 	 -54.8159 	 39.9007 	 118.083 	 
C 	 -55.74 	 39.7025 	 117.018 	 
C 	 -56.3142 	 40.9058 	 116.615 	 
H 	 -54.1985 	 39.1591 	 118.605 	 
C 	 -56.1929 	 38.3547 	 116.468 	 
H 	 -55.3009 	 37.8916 	 116.074 	 
H 	 -56.9165 	 38.574 	 115.655 	 
C 	 -57.1189 	 37.4743 	 117.381 	 
H 	 -56.5986 	 37.1907 	 118.356 	 
H 	 -57.2714 	 36.5531 	 116.901 	 
C 	 -58.4747 	 38.0801 	 117.782 	 
H 	 -59.1724 	 38.3162 	 116.943 	 
H 	 -58.431 	 38.9881 	 118.296 	 
H 	 -58.9737 	 37.3987 	 118.492 	 
H 	 -59.3805 	 43.198 	 113.512 	 
H 	 -54.0725 	 41.4973 	 119.156 	 
