34

S 	 -15.3904 	 32.3809 	 34.6882 	 
C 	 -14.1867 	 33.275 	 33.9107 	 
C 	 -14.6526 	 34.3441 	 33.0938 	 
C 	 -16.0588 	 34.3565 	 33.163 	 
C 	 -16.6377 	 33.4914 	 34.06 	 
H 	 -16.6945 	 34.9563 	 32.6091 	 
C 	 -13.862 	 35.3066 	 32.2399 	 
H 	 -14.0893 	 35.2331 	 31.1957 	 
H 	 -12.859 	 34.9583 	 32.3276 	 
C 	 -13.8613 	 36.7746 	 32.7887 	 
H 	 -14.8846 	 37.067 	 32.5862 	 
H 	 -13.8427 	 36.6845 	 33.9185 	 
C 	 -12.7521 	 37.5955 	 32.2115 	 
H 	 -12.9565 	 37.7378 	 31.169 	 
H 	 -12.67 	 38.5647 	 32.6166 	 
H 	 -11.7456 	 37.1237 	 32.2073 	 
S 	 -18.7508 	 34.7645 	 35.2545 	 
C 	 -20.1298 	 33.8737 	 35.6334 	 
C 	 -20.1527 	 32.5853 	 35.1544 	 
C 	 -18.9939 	 32.3525 	 34.3429 	 
C 	 -18.0572 	 33.3766 	 34.3613 	 
H 	 -21.0013 	 31.9049 	 35.2594 	 
C 	 -18.8732 	 31.0131 	 33.5568 	 
H 	 -19.6661 	 30.354 	 33.8986 	 
H 	 -17.8933 	 30.6372 	 33.8904 	 
C 	 -18.9271 	 31.2552 	 32.0011 	 
H 	 -19.8382 	 31.8515 	 31.756 	 
H 	 -18.9401 	 30.3176 	 31.4716 	 
C 	 -17.6577 	 31.9444 	 31.4474 	 
H 	 -16.7314 	 31.6849 	 31.9513 	 
H 	 -17.7784 	 32.9973 	 31.5138 	 
H 	 -17.6263 	 31.8313 	 30.3804 	 
H 	 -13.1762 	 33.2457 	 34.2152 	 
H 	 -20.9847 	 34.3223 	 36.0826 	 
