34

S 	 5.82416 	 79.0742 	 47.2598 	 
C 	 5.71879 	 77.4588 	 46.4789 	 
C 	 6.49115 	 76.5757 	 47.1742 	 
C 	 7.31403 	 77.2119 	 48.1486 	 
C 	 7.04383 	 78.5846 	 48.2535 	 
H 	 7.97676 	 76.7385 	 48.8581 	 
C 	 6.70517 	 75.1492 	 46.8906 	 
H 	 7.75655 	 74.9634 	 47.1615 	 
H 	 6.76067 	 74.8824 	 45.8042 	 
C 	 5.92957 	 74.169 	 47.6893 	 
H 	 6.08554 	 74.3817 	 48.7294 	 
H 	 4.87688 	 74.2689 	 47.4814 	 
C 	 6.26097 	 72.6942 	 47.4856 	 
H 	 5.81009 	 72.2762 	 46.5877 	 
H 	 7.38598 	 72.5038 	 47.4706 	 
H 	 5.88763 	 72.0892 	 48.3043 	 
S 	 8.91609 	 80.5707 	 48.5786 	 
C 	 9.36545 	 81.1161 	 50.0776 	 
C 	 8.7159 	 80.4712 	 51.0925 	 
C 	 7.64955 	 79.6095 	 50.6057 	 
C 	 7.69158 	 79.53 	 49.1907 	 
H 	 8.99832 	 80.5822 	 52.1053 	 
C 	 6.78316 	 78.761 	 51.4877 	 
H 	 7.25448 	 78.8548 	 52.4374 	 
H 	 6.78724 	 77.7272 	 51.2204 	 
C 	 5.30117 	 79.1864 	 51.6562 	 
H 	 4.82336 	 78.4965 	 52.3572 	 
H 	 4.65421 	 79.0189 	 50.7781 	 
C 	 5.10782 	 80.626 	 52.1659 	 
H 	 5.50688 	 80.6935 	 53.1444 	 
H 	 4.04801 	 81.0456 	 52.1502 	 
H 	 5.55506 	 81.2969 	 51.5335 	 
H 	 4.89531 	 77.1728 	 45.7594 	 
H 	 10.1126 	 81.9126 	 50.3832 	 
