34

S 	 -13.4228 	 37.6931 	 32.693 	 
C 	 -14.9658 	 37.9929 	 33.3542 	 
C 	 -15.7473 	 38.5863 	 32.469 	 
C 	 -15.0306 	 38.9786 	 31.2572 	 
C 	 -13.734 	 38.6586 	 31.2893 	 
H 	 -15.335 	 39.4568 	 30.3625 	 
C 	 -17.2777 	 38.8577 	 32.6662 	 
H 	 -17.416 	 39.8892 	 32.6307 	 
H 	 -17.6099 	 38.5689 	 33.6451 	 
C 	 -18.2573 	 38.3063 	 31.5603 	 
H 	 -17.6649 	 37.5339 	 31.1178 	 
H 	 -19.0472 	 37.7675 	 32.0643 	 
C 	 -18.7854 	 39.3147 	 30.498 	 
H 	 -17.9923 	 39.6842 	 29.8807 	 
H 	 -19.2566 	 38.627 	 29.9065 	 
H 	 -19.5136 	 40.0662 	 30.8299 	 
S 	 -12.4301 	 37.3381 	 29.3143 	 
C 	 -11.8387 	 38.1432 	 27.9323 	 
C 	 -12.0044 	 39.5259 	 28.0365 	 
C 	 -12.586 	 39.9192 	 29.2595 	 
C 	 -12.8637 	 38.8627 	 30.0993 	 
H 	 -11.5347 	 40.0785 	 27.2597 	 
C 	 -12.832 	 41.3937 	 29.53 	 
H 	 -12.153 	 42.0562 	 29.0048 	 
H 	 -12.5993 	 41.5259 	 30.6247 	 
C 	 -14.2659 	 41.9731 	 29.1295 	 
H 	 -14.2112 	 43.0617 	 29.0659 	 
H 	 -14.8949 	 41.853 	 30.0217 	 
C 	 -14.9309 	 41.5022 	 27.809 	 
H 	 -15.8734 	 41.9923 	 27.7711 	 
H 	 -15.0106 	 40.3943 	 27.7502 	 
H 	 -14.3713 	 41.7417 	 26.9378 	 
H 	 -15.2698 	 37.517 	 34.2713 	 
H 	 -11.4093 	 37.6751 	 27.0427 	 
