34

S 	 -89.3602 	 43.2208 	 119.656 	 
C 	 -89.3404 	 41.5795 	 120.295 	 
C 	 -89.6799 	 40.6546 	 119.348 	 
C 	 -89.8352 	 41.28 	 118.041 	 
C 	 -89.8097 	 42.6527 	 118.079 	 
H 	 -90.1589 	 40.8153 	 117.115 	 
C 	 -89.6615 	 39.1617 	 119.491 	 
H 	 -89.7505 	 38.916 	 120.575 	 
H 	 -88.685 	 38.7764 	 119.085 	 
C 	 -90.8102 	 38.3167 	 118.877 	 
H 	 -91.7693 	 38.5469 	 119.412 	 
H 	 -90.8291 	 38.5731 	 117.83 	 
C 	 -90.5179 	 36.7922 	 119.054 	 
H 	 -91.0925 	 36.1607 	 118.308 	 
H 	 -89.5168 	 36.5536 	 118.738 	 
H 	 -90.6786 	 36.4201 	 120.084 	 
S 	 -91.7489 	 43.7416 	 116.56 	 
C 	 -91.3136 	 44.8137 	 115.242 	 
C 	 -89.9535 	 44.9959 	 115.134 	 
C 	 -89.2421 	 44.2114 	 116.108 	 
C 	 -90.0995 	 43.5646 	 117.002 	 
H 	 -89.556 	 45.5177 	 114.226 	 
C 	 -87.7054 	 44.0833 	 116.105 	 
H 	 -87.4644 	 42.9452 	 116.014 	 
H 	 -87.4455 	 44.3117 	 117.095 	 
C 	 -86.8303 	 45.0134 	 115.219 	 
H 	 -87.0941 	 46.0828 	 115.466 	 
H 	 -87.1844 	 44.7817 	 114.242 	 
C 	 -85.3356 	 44.7052 	 115.217 	 
H 	 -85.1071 	 43.7493 	 115.537 	 
H 	 -84.7336 	 45.3593 	 115.891 	 
H 	 -84.8994 	 44.8152 	 114.182 	 
H 	 -88.9009 	 41.352 	 121.303 	 
H 	 -92.031 	 45.2866 	 114.604 	 
