34

S 	 12.0256 	 22.0632 	 51.6205 	 
C 	 11.9367 	 20.5971 	 52.61 	 
C 	 11.3565 	 19.59 	 51.77 	 
C 	 10.8865 	 20.1141 	 50.4796 	 
C 	 11.1366 	 21.4472 	 50.2782 	 
H 	 10.4355 	 19.6128 	 49.6768 	 
C 	 11.0625 	 18.1486 	 52.1372 	 
H 	 11.9092 	 17.7694 	 52.7621 	 
H 	 11.0571 	 17.5791 	 51.2069 	 
C 	 9.82889 	 18.0399 	 52.9156 	 
H 	 9.87542 	 18.4736 	 53.9715 	 
H 	 9.12701 	 18.5953 	 52.3044 	 
C 	 9.26344 	 16.6131 	 53.2179 	 
H 	 10.1021 	 16.0148 	 53.6645 	 
H 	 8.44154 	 16.6596 	 53.8861 	 
H 	 8.96846 	 16.2086 	 52.2231 	 
S 	 9.25419 	 21.8806 	 48.2922 	 
C 	 9.75171 	 22.8649 	 47.0156 	 
C 	 10.6741 	 23.7887 	 47.3286 	 
C 	 11.4048 	 23.3461 	 48.469 	 
C 	 10.869 	 22.212 	 49.0643 	 
H 	 10.9387 	 24.5394 	 46.7418 	 
C 	 12.6826 	 24.0709 	 48.857 	 
H 	 13.3193 	 23.9327 	 47.975 	 
H 	 13.0763 	 23.6384 	 49.7514 	 
C 	 12.5394 	 25.668 	 48.9044 	 
H 	 11.8082 	 25.8539 	 49.6915 	 
H 	 12.3502 	 26.0771 	 47.9477 	 
C 	 13.7203 	 26.3651 	 49.5376 	 
H 	 14.246 	 25.6387 	 50.1737 	 
H 	 13.4506 	 27.1962 	 50.1146 	 
H 	 14.4611 	 26.72 	 48.8513 	 
H 	 12.338 	 20.5165 	 53.6144 	 
H 	 9.111 	 22.8639 	 46.143 	 
