34

S 	 33.8928 	 -5.08487 	 71.6192 	 
C 	 34.2458 	 -4.19175 	 73.0551 	 
C 	 33.8077 	 -2.84189 	 72.9555 	 
C 	 33.4197 	 -2.51175 	 71.6276 	 
C 	 33.4764 	 -3.60239 	 70.7387 	 
H 	 33.1345 	 -1.57951 	 71.2471 	 
C 	 33.9999 	 -1.78182 	 74.0857 	 
H 	 34.5037 	 -2.35742 	 74.8575 	 
H 	 33.0561 	 -1.47494 	 74.5235 	 
C 	 34.7995 	 -0.535706 	 73.6319 	 
H 	 35.6896 	 -0.894632 	 73.1109 	 
H 	 34.1842 	 -0.103312 	 72.8191 	 
C 	 35.2236 	 0.47379 	 74.7572 	 
H 	 36.1202 	 0.0486513 	 75.2485 	 
H 	 35.6743 	 1.42191 	 74.3696 	 
H 	 34.4499 	 0.796676 	 75.4275 	 
S 	 32.1808 	 -4.97475 	 68.6998 	 
C 	 32.117 	 -4.24281 	 67.1257 	 
C 	 32.7367 	 -3.04191 	 67.1227 	 
C 	 33.1847 	 -2.58222 	 68.4256 	 
C 	 33.0429 	 -3.6464 	 69.3378 	 
H 	 32.8544 	 -2.46884 	 66.2906 	 
C 	 33.8063 	 -1.313 	 68.6656 	 
H 	 34.5086 	 -1.17757 	 67.8517 	 
H 	 34.4409 	 -1.4763 	 69.5262 	 
C 	 32.7748 	 -0.14835 	 68.7707 	 
H 	 33.3185 	 0.739487 	 69.1731 	 
H 	 32.0401 	 -0.409098 	 69.5065 	 
C 	 32.2149 	 0.378548 	 67.4311 	 
H 	 31.4785 	 -0.255891 	 66.9626 	 
H 	 33.0915 	 0.482237 	 66.7973 	 
H 	 31.7729 	 1.41437 	 67.5883 	 
H 	 34.6495 	 -4.59438 	 73.9768 	 
H 	 31.7642 	 -4.72009 	 66.1983 	 
