34

S 	 -44.363 	 29.9129 	 88.9746 	 
C 	 -44.752 	 29.4731 	 90.5861 	 
C 	 -45.9144 	 30.064 	 91.0574 	 
C 	 -46.4851 	 30.9357 	 90.1018 	 
C 	 -45.7276 	 31.1055 	 88.9857 	 
H 	 -47.4577 	 31.4357 	 90.1481 	 
C 	 -46.5192 	 29.9292 	 92.357 	 
H 	 -46.6319 	 30.8076 	 92.9612 	 
H 	 -45.7933 	 29.2113 	 92.8256 	 
C 	 -47.9143 	 29.2068 	 92.3889 	 
H 	 -48.6038 	 29.8925 	 91.7742 	 
H 	 -47.7714 	 28.2355 	 91.858 	 
C 	 -48.2459 	 28.8215 	 93.8461 	 
H 	 -47.5357 	 28.0981 	 94.128 	 
H 	 -48.0809 	 29.6636 	 94.5306 	 
H 	 -49.2933 	 28.4299 	 93.922 	 
S 	 -46.1754 	 31.1868 	 86.2054 	 
C 	 -46.6652 	 32.7309 	 85.4467 	 
C 	 -46.6708 	 33.7096 	 86.4263 	 
C 	 -46.3098 	 33.3146 	 87.777 	 
C 	 -45.9683 	 31.9874 	 87.8098 	 
H 	 -46.9289 	 34.6785 	 86.0831 	 
C 	 -46.436 	 34.3225 	 88.8933 	 
H 	 -45.4357 	 34.2435 	 89.3608 	 
H 	 -47.0647 	 33.8602 	 89.6006 	 
C 	 -46.7956 	 35.7956 	 88.558 	 
H 	 -47.7757 	 35.7608 	 88.0578 	 
H 	 -45.996 	 36.1081 	 87.9306 	 
C 	 -46.6528 	 36.6747 	 89.7604 	 
H 	 -45.6874 	 36.6711 	 90.2522 	 
H 	 -47.3979 	 36.5562 	 90.5267 	 
H 	 -46.8385 	 37.6858 	 89.4091 	 
H 	 -44.1471 	 28.8606 	 91.2646 	 
H 	 -46.8827 	 32.9601 	 84.4165 	 
