34

S 	 -33.392 	 44.0074 	 96.263 	 
C 	 -34.5862 	 43.1555 	 97.1038 	 
C 	 -35.3935 	 43.9912 	 97.8915 	 
C 	 -34.9181 	 45.3373 	 97.8277 	 
C 	 -33.8027 	 45.5111 	 97.0634 	 
H 	 -35.2818 	 46.1592 	 98.3967 	 
C 	 -36.6122 	 43.7687 	 98.7456 	 
H 	 -36.3991 	 43.9718 	 99.7964 	 
H 	 -36.758 	 42.6907 	 98.8125 	 
C 	 -37.9052 	 44.5101 	 98.3292 	 
H 	 -37.875 	 45.5935 	 98.4788 	 
H 	 -37.9646 	 44.3543 	 97.237 	 
C 	 -39.0703 	 43.9498 	 99.1419 	 
H 	 -40.0462 	 44.2752 	 98.8227 	 
H 	 -39.0371 	 42.9108 	 99.0608 	 
H 	 -38.9089 	 44.2043 	 100.224 	 
S 	 -31.1708 	 46.4933 	 97.1498 	 
C 	 -30.9299 	 48.1907 	 96.8695 	 
C 	 -32.1746 	 48.88 	 96.7403 	 
C 	 -33.2755 	 47.9633 	 96.6447 	 
C 	 -32.9452 	 46.6648 	 96.9617 	 
H 	 -32.1856 	 50.0187 	 96.6652 	 
C 	 -34.683 	 48.5199 	 96.3241 	 
H 	 -34.8221 	 49.6915 	 96.5019 	 
H 	 -35.2442 	 48.0995 	 97.1649 	 
C 	 -35.3186 	 48.1207 	 94.9444 	 
H 	 -36.4456 	 48.2757 	 94.8407 	 
H 	 -35.2098 	 47.0231 	 94.9139 	 
C 	 -34.5389 	 48.6827 	 93.7157 	 
H 	 -33.4982 	 48.3683 	 93.78 	 
H 	 -34.5962 	 49.7741 	 93.4522 	 
H 	 -34.9596 	 48.284 	 92.8392 	 
H 	 -34.9623 	 42.1959 	 96.944 	 
H 	 -30.0262 	 48.6285 	 97.2104 	 
