34

S 	 -14.4896 	 -10.6717 	 92.0384 	 
C 	 -16.1339 	 -10.0418 	 91.6715 	 
C 	 -16.249 	 -10.0054 	 90.2491 	 
C 	 -15.0978 	 -10.6665 	 89.61 	 
C 	 -14.1568 	 -11.2281 	 90.4436 	 
H 	 -14.9982 	 -10.856 	 88.5565 	 
C 	 -17.3917 	 -9.36693 	 89.4801 	 
H 	 -16.9577 	 -8.37711 	 89.3921 	 
H 	 -18.187 	 -9.52853 	 90.2047 	 
C 	 -17.9063 	 -10.0386 	 88.1996 	 
H 	 -17.1437 	 -10.0789 	 87.4308 	 
H 	 -18.2602 	 -11.0561 	 88.4103 	 
C 	 -18.9146 	 -9.09392 	 87.5529 	 
H 	 -19.7833 	 -8.92562 	 88.2309 	 
H 	 -18.5301 	 -8.17517 	 87.2526 	 
H 	 -19.3877 	 -9.59005 	 86.7163 	 
S 	 -11.4096 	 -11.2489 	 90.8534 	 
C 	 -10.4941 	 -12.5733 	 90.271 	 
C 	 -11.2161 	 -13.3652 	 89.3704 	 
C 	 -12.5653 	 -12.9169 	 89.2483 	 
C 	 -12.9223 	 -11.9155 	 90.1082 	 
H 	 -10.7339 	 -14.1875 	 88.96 	 
C 	 -13.4983 	 -13.6639 	 88.3784 	 
H 	 -13.1424 	 -14.5023 	 87.8165 	 
H 	 -13.674 	 -12.8283 	 87.6804 	 
C 	 -14.7956 	 -14.1804 	 89.04 	 
H 	 -15.3577 	 -14.6995 	 88.2258 	 
H 	 -15.3125 	 -13.28 	 89.2907 	 
C 	 -14.6661 	 -15.109 	 90.2116 	 
H 	 -15.6654 	 -15.3932 	 90.5131 	 
H 	 -14.1328 	 -14.7213 	 91.1072 	 
H 	 -14.0412 	 -15.9957 	 89.9726 	 
H 	 -16.9459 	 -9.64569 	 92.3691 	 
H 	 -9.43793 	 -12.7791 	 90.3662 	 
