34

S 	 23.8527 	 6.80135 	 70.9504 	 
C 	 25.2042 	 6.85537 	 69.8198 	 
C 	 25.0512 	 7.73233 	 68.7374 	 
C 	 23.7663 	 8.23606 	 68.7927 	 
C 	 23.0069 	 7.9727 	 69.9288 	 
H 	 23.3599 	 8.80568 	 68.01 	 
C 	 26.0592 	 8.00899 	 67.6803 	 
H 	 26.171 	 7.00941 	 67.1122 	 
H 	 27.0127 	 8.1229 	 68.1548 	 
C 	 25.7554 	 9.21477 	 66.7999 	 
H 	 24.7998 	 9.0068 	 66.2557 	 
H 	 25.574 	 10.1776 	 67.3396 	 
C 	 26.8735 	 9.48274 	 65.7927 	 
H 	 27.0982 	 8.72612 	 65.0529 	 
H 	 26.6122 	 10.3645 	 65.2081 	 
H 	 27.7831 	 9.72231 	 66.329 	 
S 	 20.5174 	 7.0033 	 70.6965 	 
C 	 19.1504 	 7.97958 	 70.3367 	 
C 	 19.4488 	 9.21098 	 69.8874 	 
C 	 20.8654 	 9.46796 	 69.9083 	 
C 	 21.5917 	 8.29689 	 70.1634 	 
H 	 18.719 	 9.99434 	 69.6668 	 
C 	 21.3742 	 10.7837 	 69.3658 	 
H 	 20.8503 	 10.9974 	 68.3948 	 
H 	 22.4556 	 10.5581 	 69.0781 	 
C 	 21.439 	 11.9636 	 70.3573 	 
H 	 21.8843 	 11.6224 	 71.2173 	 
H 	 20.4379 	 12.2927 	 70.5514 	 
C 	 22.1089 	 13.2437 	 69.8555 	 
H 	 23.0556 	 13.0821 	 69.2234 	 
H 	 22.225 	 13.875 	 70.7532 	 
H 	 21.514 	 13.794 	 69.1159 	 
H 	 26.1439 	 6.29699 	 69.9953 	 
H 	 18.0835 	 7.7052 	 70.4157 	 
