34

S 	 -43.166 	 54.0687 	 102.029 	 
C 	 -44.1589 	 54.1963 	 103.447 	 
C 	 -44.506 	 52.9869 	 104.009 	 
C 	 -43.7204 	 51.9389 	 103.418 	 
C 	 -43.1145 	 52.2736 	 102.203 	 
H 	 -43.6907 	 50.9814 	 103.764 	 
C 	 -45.2955 	 52.8643 	 105.293 	 
H 	 -45.097 	 51.8448 	 105.594 	 
H 	 -46.3465 	 52.8204 	 105.065 	 
C 	 -44.9769 	 53.9162 	 106.375 	 
H 	 -45.3726 	 54.8551 	 106.022 	 
H 	 -45.5385 	 53.7553 	 107.292 	 
C 	 -43.553 	 54.0345 	 106.803 	 
H 	 -43.5222 	 54.2292 	 107.915 	 
H 	 -42.9637 	 53.1467 	 106.81 	 
H 	 -43.0136 	 54.804 	 106.342 	 
S 	 -40.7242 	 52.0836 	 100.84 	 
C 	 -40.2129 	 50.5215 	 100.24 	 
C 	 -41.1922 	 49.5798 	 100.323 	 
C 	 -42.3074 	 50.0744 	 101.012 	 
C 	 -42.2746 	 51.4352 	 101.34 	 
H 	 -40.9489 	 48.5802 	 100.007 	 
C 	 -43.408 	 49.0797 	 101.431 	 
H 	 -43.8004 	 48.6143 	 100.477 	 
H 	 -44.2841 	 49.6356 	 101.783 	 
C 	 -43.0021 	 47.8971 	 102.429 	 
H 	 -42.3071 	 47.2836 	 101.946 	 
H 	 -43.9139 	 47.2054 	 102.598 	 
C 	 -42.3838 	 48.3454 	 103.783 	 
H 	 -43.0945 	 49.0397 	 104.262 	 
H 	 -41.4239 	 48.8646 	 103.53 	 
H 	 -42.1991 	 47.3684 	 104.286 	 
H 	 -44.6743 	 55.0862 	 103.765 	 
H 	 -39.3767 	 50.4249 	 99.715 	 
