34

S 	 -30.6944 	 60.0006 	 104.083 	 
C 	 -29.5659 	 59.1861 	 105.09 	 
C 	 -29.0228 	 59.9416 	 106.087 	 
C 	 -29.6659 	 61.2377 	 106.104 	 
C 	 -30.5555 	 61.4643 	 105.097 	 
H 	 -29.4721 	 62.0137 	 106.782 	 
C 	 -28.2421 	 59.4106 	 107.186 	 
H 	 -28.2984 	 58.3512 	 107.25 	 
H 	 -28.6631 	 59.7623 	 108.075 	 
C 	 -26.7495 	 59.8368 	 107.279 	 
H 	 -26.5758 	 60.8887 	 107.342 	 
H 	 -26.3479 	 59.4284 	 108.231 	 
C 	 -26.1533 	 59.3763 	 105.981 	 
H 	 -26.2502 	 58.279 	 105.819 	 
H 	 -26.542 	 59.8219 	 105.138 	 
H 	 -25.128 	 59.5554 	 105.908 	 
S 	 -32.8641 	 62.6049 	 103.945 	 
C 	 -33.1478 	 64.2872 	 104.163 	 
C 	 -32.1006 	 64.9026 	 104.788 	 
C 	 -31.083 	 64.0711 	 105.271 	 
C 	 -31.313 	 62.724 	 104.882 	 
H 	 -32.0865 	 66.0275 	 104.934 	 
C 	 -29.7813 	 64.6434 	 105.899 	 
H 	 -29.6879 	 64.2759 	 106.887 	 
H 	 -30.0393 	 65.6894 	 105.921 	 
C 	 -28.5347 	 64.5348 	 105.02 	 
H 	 -28.7195 	 64.8148 	 103.96 	 
H 	 -28.2327 	 63.4779 	 104.942 	 
C 	 -27.3714 	 65.4522 	 105.665 	 
H 	 -26.3787 	 65.2726 	 105.175 	 
H 	 -27.38 	 65.348 	 106.779 	 
H 	 -27.6297 	 66.543 	 105.577 	 
H 	 -29.1743 	 58.1451 	 104.961 	 
H 	 -33.9032 	 64.9174 	 103.794 	 
