34

S 	 43.7523 	 20.3335 	 87.0804 	 
C 	 45.0328 	 21.4017 	 87.6263 	 
C 	 45.5272 	 21.0785 	 88.9145 	 
C 	 44.7451 	 20.0077 	 89.4634 	 
C 	 43.7059 	 19.5146 	 88.6571 	 
H 	 44.9242 	 19.6026 	 90.4916 	 
C 	 46.6587 	 21.7731 	 89.6595 	 
H 	 46.263 	 22.5566 	 90.3972 	 
H 	 47.2058 	 22.3563 	 88.9273 	 
C 	 47.6059 	 20.8214 	 90.397 	 
H 	 47.0453 	 19.9499 	 90.8729 	 
H 	 48.3048 	 20.3453 	 89.7184 	 
C 	 48.4551 	 21.5497 	 91.5272 	 
H 	 49.1329 	 20.8511 	 92.0621 	 
H 	 49.163 	 22.3597 	 91.1848 	 
H 	 47.8046 	 22.028 	 92.3227 	 
S 	 42.3278 	 18.2184 	 90.5768 	 
C 	 41.7715 	 16.6541 	 90.2675 	 
C 	 41.7572 	 16.3221 	 88.9635 	 
C 	 42.4897 	 17.2538 	 88.2136 	 
C 	 42.8625 	 18.3756 	 88.9418 	 
H 	 41.4313 	 15.322 	 88.707 	 
C 	 42.7554 	 16.9451 	 86.7473 	 
H 	 42.5743 	 17.8367 	 86.164 	 
H 	 42.0566 	 16.1687 	 86.4741 	 
C 	 44.1269 	 16.319 	 86.3691 	 
H 	 44.1484 	 15.8733 	 85.3001 	 
H 	 44.17 	 15.447 	 87.0367 	 
C 	 45.3812 	 17.1696 	 86.3854 	 
H 	 45.4117 	 17.7445 	 87.377 	 
H 	 45.2954 	 17.9747 	 85.6738 	 
H 	 46.2732 	 16.5854 	 86.1495 	 
H 	 45.6197 	 21.9754 	 86.8757 	 
H 	 41.4092 	 16.0234 	 91.0936 	 
