34

S 	 1.83791 	 17.2449 	 86.6451 	 
C 	 2.57364 	 18.6388 	 85.882 	 
C 	 3.96039 	 18.5306 	 85.7856 	 
C 	 4.49769 	 17.2883 	 86.3551 	 
C 	 3.45207 	 16.5304 	 86.855 	 
H 	 5.51805 	 16.8383 	 86.3449 	 
C 	 4.88787 	 19.3728 	 84.9285 	 
H 	 5.92667 	 19.2951 	 85.3214 	 
H 	 4.41513 	 20.3137 	 85.0774 	 
C 	 4.96349 	 19.1125 	 83.4667 	 
H 	 5.41268 	 18.1774 	 83.1398 	 
H 	 3.95157 	 19.0002 	 83.0164 	 
C 	 5.55398 	 20.3735 	 82.8197 	 
H 	 4.88178 	 21.2405 	 83.0137 	 
H 	 6.63065 	 20.4888 	 83.1082 	 
H 	 5.48566 	 20.2427 	 81.7761 	 
S 	 3.00226 	 13.9474 	 86.2746 	 
C 	 3.59457 	 12.6889 	 87.2763 	 
C 	 4.12195 	 13.2737 	 88.4214 	 
C 	 4.03928 	 14.6481 	 88.5524 	 
C 	 3.49088 	 15.1763 	 87.3585 	 
H 	 4.4545 	 12.5287 	 89.1834 	 
C 	 4.54235 	 15.332 	 89.7303 	 
H 	 4.16279 	 16.3173 	 89.6041 	 
H 	 5.61969 	 15.2923 	 89.5962 	 
C 	 4.17066 	 14.6317 	 91.0404 	 
H 	 4.67647 	 15.2168 	 91.8024 	 
H 	 4.62483 	 13.6413 	 91.0915 	 
C 	 2.73444 	 14.4361 	 91.4656 	 
H 	 2.31695 	 15.4637 	 91.5152 	 
H 	 2.71643 	 13.9319 	 92.4464 	 
H 	 2.10918 	 13.7892 	 90.8615 	 
H 	 2.0869 	 19.4715 	 85.3656 	 
H 	 3.64862 	 11.6636 	 87.0853 	 
