34

S 	 42.2174 	 19.6619 	 46.0422 	 
C 	 40.6849 	 18.9894 	 45.5084 	 
C 	 40.0878 	 19.7908 	 44.4894 	 
C 	 40.9041 	 20.8598 	 44.1043 	 
C 	 42.0104 	 21.0028 	 44.8927 	 
H 	 40.6711 	 21.5456 	 43.2926 	 
C 	 38.7769 	 19.323 	 43.8521 	 
H 	 38.7635 	 18.264 	 44.0267 	 
H 	 38.9388 	 19.5665 	 42.7476 	 
C 	 37.5667 	 19.9453 	 44.4397 	 
H 	 37.7888 	 20.9994 	 44.5104 	 
H 	 36.7593 	 19.9249 	 43.6895 	 
C 	 37.0804 	 19.2401 	 45.7684 	 
H 	 36.9397 	 18.1892 	 45.6589 	 
H 	 37.7599 	 19.4711 	 46.5938 	 
H 	 36.1549 	 19.7275 	 46.0716 	 
S 	 44.7092 	 21.8724 	 44.4066 	 
C 	 45.1188 	 23.5876 	 44.6355 	 
C 	 43.9422 	 24.2828 	 44.7458 	 
C 	 42.749 	 23.5079 	 44.8923 	 
C 	 42.9471 	 22.1287 	 44.8152 	 
H 	 44.0177 	 25.3915 	 44.7601 	 
C 	 41.3868 	 24.2308 	 44.9888 	 
H 	 41.0245 	 24.1293 	 46.0643 	 
H 	 40.6523 	 23.694 	 44.4011 	 
C 	 41.3807 	 25.7105 	 44.5844 	 
H 	 42.1491 	 26.3064 	 45.1151 	 
H 	 40.4524 	 26.0823 	 44.9955 	 
C 	 41.5808 	 25.9344 	 43.0691 	 
H 	 40.6642 	 25.9699 	 42.5531 	 
H 	 42.0644 	 25.0617 	 42.5759 	 
H 	 42.1239 	 26.8817 	 42.8836 	 
H 	 40.3518 	 18.016 	 45.9179 	 
H 	 46.0768 	 24.0521 	 44.5702 	 
