34

S 	 19.3664 	 -8.68671 	 81.3765 	 
C 	 17.6425 	 -8.55487 	 80.8136 	 
C 	 16.8243 	 -9.50298 	 81.4167 	 
C 	 17.5661 	 -10.3331 	 82.3127 	 
C 	 18.9037 	 -10.1039 	 82.3298 	 
H 	 17.0518 	 -11.1238 	 82.8053 	 
C 	 15.3721 	 -9.56896 	 81.188 	 
H 	 14.9277 	 -8.63885 	 81.5885 	 
H 	 14.9198 	 -10.349 	 81.6991 	 
C 	 15.0654 	 -9.86911 	 79.6767 	 
H 	 15.6441 	 -9.2437 	 78.9555 	 
H 	 15.2676 	 -10.852 	 79.4491 	 
C 	 13.618 	 -9.68798 	 79.4671 	 
H 	 13.2957 	 -8.73447 	 79.0467 	 
H 	 13.2793 	 -10.4315 	 78.7299 	 
H 	 13.0632 	 -9.8141 	 80.3588 	 
S 	 19.7814 	 -10.7531 	 84.8515 	 
C 	 21.3771 	 -11.5605 	 85.0024 	 
C 	 21.7377 	 -11.9979 	 83.7602 	 
C 	 21.0398 	 -11.4605 	 82.5997 	 
C 	 19.9374 	 -10.7783 	 83.0638 	 
H 	 22.6618 	 -12.518 	 83.663 	 
C 	 21.3285 	 -11.9636 	 81.2226 	 
H 	 22.1505 	 -11.3646 	 80.8286 	 
H 	 20.4519 	 -11.6695 	 80.6674 	 
C 	 21.5732 	 -13.3829 	 81.0335 	 
H 	 20.7104 	 -13.9561 	 81.268 	 
H 	 22.3379 	 -13.7144 	 81.6085 	 
C 	 21.908 	 -13.6677 	 79.5555 	 
H 	 22.882 	 -13.1801 	 79.3618 	 
H 	 21.1509 	 -13.3618 	 78.8406 	 
H 	 21.9667 	 -14.7427 	 79.5244 	 
H 	 17.3015 	 -7.69071 	 80.1456 	 
H 	 21.8603 	 -11.9288 	 85.9834 	 
