34

S 	 50.788 	 7.20802 	 81.8945 	 
C 	 50.526 	 8.08999 	 83.4283 	 
C 	 49.5535 	 7.47591 	 84.215 	 
C 	 49.0145 	 6.33139 	 83.6039 	 
C 	 49.5028 	 6.04796 	 82.3457 	 
H 	 48.2395 	 5.70962 	 84.0828 	 
C 	 49.1456 	 8.00065 	 85.5586 	 
H 	 48.0388 	 7.88339 	 85.7225 	 
H 	 49.2913 	 9.05864 	 85.714 	 
C 	 49.7779 	 7.32099 	 86.8252 	 
H 	 49.3191 	 7.60168 	 87.7817 	 
H 	 49.5026 	 6.29697 	 86.7171 	 
C 	 51.3524 	 7.54538 	 86.8681 	 
H 	 51.7818 	 8.43215 	 86.3688 	 
H 	 51.6968 	 7.64448 	 87.9043 	 
H 	 51.7895 	 6.67293 	 86.4449 	 
S 	 47.9151 	 5.13 	 80.1582 	 
C 	 47.9041 	 3.4132 	 79.866 	 
C 	 48.7284 	 2.72431 	 80.7266 	 
C 	 49.414 	 3.56375 	 81.6364 	 
C 	 49.0545 	 4.89719 	 81.5222 	 
H 	 48.9694 	 1.66191 	 80.5902 	 
C 	 50.4737 	 3.02419 	 82.6349 	 
H 	 50.8961 	 3.84467 	 83.2015 	 
H 	 51.3145 	 2.6757 	 82.0216 	 
C 	 50.0138 	 1.96228 	 83.6301 	 
H 	 49.7915 	 0.97595 	 83.1708 	 
H 	 49.2144 	 2.30093 	 84.2325 	 
C 	 51.2774 	 1.5916 	 84.4447 	 
H 	 51.4166 	 2.42618 	 85.0371 	 
H 	 52.2162 	 1.4006 	 83.8994 	 
H 	 51.0129 	 0.796621 	 85.1974 	 
H 	 51.085 	 8.96922 	 83.7307 	 
H 	 47.3348 	 2.90756 	 79.1439 	 
