34

S 	 -71.2027 	 58.9608 	 122.166 	 
C 	 -70.4133 	 59.6885 	 120.766 	 
C 	 -69.0508 	 59.6251 	 120.839 	 
C 	 -68.6343 	 59.0292 	 122.04 	 
C 	 -69.6026 	 58.6224 	 122.907 	 
H 	 -67.563 	 58.9426 	 122.38 	 
C 	 -68.0829 	 60.1256 	 119.78 	 
H 	 -67.7956 	 61.1442 	 120.032 	 
H 	 -68.6952 	 60.0343 	 118.87 	 
C 	 -66.9113 	 59.1763 	 119.423 	 
H 	 -66.2399 	 59.1743 	 120.313 	 
H 	 -67.2844 	 58.2276 	 119.187 	 
C 	 -66.1074 	 59.6172 	 118.14 	 
H 	 -65.5754 	 60.5202 	 118.446 	 
H 	 -65.4175 	 58.9033 	 117.673 	 
H 	 -66.7192 	 59.9656 	 117.327 	 
S 	 -70.6919 	 58.1651 	 125.337 	 
C 	 -69.7704 	 57.4761 	 126.66 	 
C 	 -68.5743 	 57.0167 	 126.157 	 
C 	 -68.3453 	 57.2622 	 124.76 	 
C 	 -69.437 	 57.8912 	 124.148 	 
H 	 -67.911 	 56.4829 	 126.866 	 
C 	 -67.14 	 56.7553 	 124.091 	 
H 	 -66.4474 	 56.3437 	 124.81 	 
H 	 -66.6596 	 57.5606 	 123.497 	 
C 	 -67.47 	 55.6186 	 123.134 	 
H 	 -68.2866 	 55.9167 	 122.421 	 
H 	 -67.8269 	 54.81 	 123.789 	 
C 	 -66.2966 	 54.9352 	 122.335 	 
H 	 -66.0013 	 55.675 	 121.549 	 
H 	 -66.5732 	 53.9933 	 121.858 	 
H 	 -65.4483 	 54.6847 	 122.97 	 
H 	 -70.8888 	 60.1977 	 119.959 	 
H 	 -70.1927 	 57.2699 	 127.604 	 
