34

S 	 -100.68 	 55.8099 	 119.603 	 
C 	 -99.8359 	 56.4943 	 118.268 	 
C 	 -100.647 	 57.3916 	 117.605 	 
C 	 -101.923 	 57.5925 	 118.302 	 
C 	 -102.066 	 56.8497 	 119.452 	 
H 	 -102.779 	 58.2284 	 117.995 	 
C 	 -100.285 	 58.0426 	 116.307 	 
H 	 -99.3497 	 57.7237 	 115.875 	 
H 	 -100.296 	 59.0539 	 116.549 	 
C 	 -101.26 	 57.9451 	 115.169 	 
H 	 -102.251 	 58.4627 	 115.344 	 
H 	 -100.793 	 58.4769 	 114.344 	 
C 	 -101.341 	 56.5842 	 114.485 	 
H 	 -101.965 	 55.9774 	 115.128 	 
H 	 -101.877 	 56.7881 	 113.557 	 
H 	 -100.381 	 56.0865 	 114.252 	 
S 	 -103.569 	 55.167 	 120.974 	 
C 	 -104.94 	 55.942 	 121.866 	 
C 	 -105.015 	 57.3027 	 121.828 	 
C 	 -103.961 	 57.8549 	 120.953 	 
C 	 -103.192 	 56.8348 	 120.397 	 
H 	 -105.753 	 57.88 	 122.349 	 
C 	 -103.743 	 59.361 	 120.742 	 
H 	 -104.49 	 60.0136 	 121.32 	 
H 	 -104.037 	 59.5696 	 119.718 	 
C 	 -102.36 	 59.9109 	 120.987 	 
H 	 -101.592 	 59.2266 	 120.524 	 
H 	 -102.172 	 59.8148 	 122.016 	 
C 	 -102.102 	 61.2445 	 120.434 	 
H 	 -102.211 	 61.1932 	 119.319 	 
H 	 -101.043 	 61.4805 	 120.685 	 
H 	 -102.835 	 61.9201 	 120.873 	 
H 	 -98.9929 	 56.0359 	 117.71 	 
H 	 -105.579 	 55.3055 	 122.469 	 
