34

S 	 -17.1067 	 32.5888 	 33.6663 	 
C 	 -15.9108 	 33.7954 	 33.2779 	 
C 	 -16.4014 	 35.0562 	 33.4193 	 
C 	 -17.7217 	 35.0781 	 33.9748 	 
C 	 -18.1825 	 33.8181 	 34.2422 	 
H 	 -18.2047 	 36.0332 	 34.1226 	 
C 	 -15.6399 	 36.2763 	 33.231 	 
H 	 -14.7166 	 36.0336 	 33.7445 	 
H 	 -16.1983 	 37.1047 	 33.6819 	 
C 	 -15.2175 	 36.6582 	 31.8534 	 
H 	 -14.7918 	 35.7874 	 31.414 	 
H 	 -16.0473 	 36.9731 	 31.2611 	 
C 	 -14.153 	 37.8287 	 31.968 	 
H 	 -14.3815 	 38.4265 	 32.8747 	 
H 	 -13.1197 	 37.4064 	 32.0445 	 
H 	 -14.1443 	 38.2532 	 30.982 	 
S 	 -19.9964 	 34.2389 	 36.2868 	 
C 	 -21.5851 	 33.587 	 36.2574 	 
C 	 -21.7033 	 32.773 	 35.143 	 
C 	 -20.5848 	 32.8091 	 34.2078 	 
C 	 -19.5401 	 33.6175 	 34.7059 	 
H 	 -22.6289 	 32.2181 	 35.0542 	 
C 	 -20.708 	 32.1934 	 32.8134 	 
H 	 -20.8734 	 31.1282 	 32.9906 	 
H 	 -19.7248 	 32.4536 	 32.3942 	 
C 	 -21.8465 	 32.7685 	 31.8817 	 
H 	 -22.8119 	 32.5047 	 32.3789 	 
H 	 -21.9089 	 32.2608 	 30.9877 	 
C 	 -21.6629 	 34.2291 	 31.5242 	 
H 	 -20.9138 	 34.4658 	 30.6669 	 
H 	 -21.5005 	 34.7916 	 32.3872 	 
H 	 -22.6619 	 34.4604 	 31.0845 	 
H 	 -14.8752 	 33.5727 	 33.0894 	 
H 	 -22.1653 	 33.5227 	 37.1789 	 
