34

S 	 57.337 	 4.89702 	 80.2793 	 
C 	 57.8571 	 3.55038 	 79.3046 	 
C 	 56.9653 	 2.48693 	 79.4319 	 
C 	 55.8648 	 2.83731 	 80.2627 	 
C 	 56.0156 	 4.00907 	 80.9811 	 
H 	 54.9517 	 2.35879 	 80.4601 	 
C 	 56.9964 	 1.22574 	 78.7159 	 
H 	 57.3824 	 1.3833 	 77.6194 	 
H 	 55.9455 	 0.902639 	 78.6964 	 
C 	 57.865 	 0.132287 	 79.3755 	 
H 	 58.1901 	 -0.566604 	 78.5931 	 
H 	 58.8016 	 0.484738 	 79.6845 	 
C 	 57.2031 	 -0.691271 	 80.4561 	 
H 	 57.8565 	 -1.25972 	 81.0833 	 
H 	 56.7192 	 0.062311 	 81.1108 	 
H 	 56.3796 	 -1.39418 	 80.1446 	 
S 	 54.88 	 6.4978 	 81.8511 	 
C 	 53.4284 	 6.33734 	 82.7731 	 
C 	 53.3378 	 5.12187 	 83.3419 	 
C 	 54.1888 	 4.1418 	 82.6982 	 
C 	 55.0206 	 4.71635 	 81.7782 	 
H 	 52.5893 	 5.05323 	 84.0945 	 
C 	 54.1813 	 2.70289 	 83.2407 	 
H 	 55.0719 	 2.16125 	 82.8211 	 
H 	 53.3546 	 2.07181 	 82.7831 	 
C 	 54.1966 	 2.68404 	 84.8135 	 
H 	 53.2945 	 3.19729 	 85.2537 	 
H 	 55.0527 	 3.30965 	 85.1105 	 
C 	 54.5251 	 1.26056 	 85.3339 	 
H 	 55.2343 	 0.726441 	 84.7325 	 
H 	 53.5346 	 0.737472 	 85.2726 	 
H 	 54.9061 	 1.3299 	 86.3591 	 
H 	 58.7853 	 3.45583 	 78.6926 	 
H 	 52.7704 	 7.21907 	 82.9627 	 
