34

S 	 -119.278 	 47.3217 	 131.267 	 
C 	 -119.066 	 47.6889 	 132.91 	 
C 	 -118.698 	 46.5077 	 133.591 	 
C 	 -118.525 	 45.3869 	 132.701 	 
C 	 -118.75 	 45.7132 	 131.388 	 
H 	 -118.172 	 44.4043 	 132.989 	 
C 	 -118.443 	 46.3795 	 135.072 	 
H 	 -119.375 	 45.9817 	 135.542 	 
H 	 -118.274 	 47.345 	 135.567 	 
C 	 -117.254 	 45.5059 	 135.604 	 
H 	 -117.394 	 45.3977 	 136.665 	 
H 	 -117.226 	 44.511 	 135.133 	 
C 	 -115.853 	 46.2039 	 135.408 	 
H 	 -115.608 	 46.1026 	 134.377 	 
H 	 -115.931 	 47.287 	 135.59 	 
H 	 -115.039 	 45.865 	 136.011 	 
S 	 -120.084 	 44.62 	 129.201 	 
C 	 -119.201 	 43.6403 	 128.079 	 
C 	 -117.863 	 43.4389 	 128.507 	 
C 	 -117.6 	 44.0187 	 129.787 	 
C 	 -118.623 	 44.8761 	 130.192 	 
H 	 -117.249 	 42.8862 	 127.793 	 
C 	 -116.29 	 43.8183 	 130.431 	 
H 	 -116.021 	 42.732 	 130.253 	 
H 	 -116.439 	 43.8922 	 131.546 	 
C 	 -115.033 	 44.5434 	 129.879 	 
H 	 -114.575 	 44.0606 	 129.026 	 
H 	 -114.238 	 44.3961 	 130.638 	 
C 	 -115.203 	 46.0171 	 129.716 	 
H 	 -116.075 	 46.3164 	 129.144 	 
H 	 -114.295 	 46.512 	 129.399 	 
H 	 -115.49 	 46.3343 	 130.75 	 
H 	 -119.071 	 48.6515 	 133.329 	 
H 	 -119.551 	 43.3146 	 127.123 	 
