34

S 	 -18.7049 	 -7.07928 	 83.9254 	 
C 	 -17.3427 	 -7.0433 	 82.8381 	 
C 	 -16.1132 	 -7.01919 	 83.3983 	 
C 	 -16.325 	 -7.1522 	 84.8441 	 
C 	 -17.6155 	 -7.17124 	 85.2584 	 
H 	 -15.5902 	 -7.30039 	 85.6025 	 
C 	 -14.8065 	 -7.31361 	 82.7101 	 
H 	 -14.2622 	 -6.40849 	 82.8782 	 
H 	 -14.881 	 -7.3413 	 81.6667 	 
C 	 -14.0249 	 -8.42083 	 83.4078 	 
H 	 -13.7874 	 -8.07033 	 84.4219 	 
H 	 -14.7384 	 -9.30319 	 83.4614 	 
C 	 -12.7257 	 -8.72801 	 82.7403 	 
H 	 -12.3514 	 -9.67087 	 83.0596 	 
H 	 -12.9113 	 -8.85139 	 81.7202 	 
H 	 -11.9067 	 -8.01117 	 82.8919 	 
S 	 -19.106 	 -8.9399 	 86.9364 	 
C 	 -18.9571 	 -8.71676 	 88.685 	 
C 	 -18.4428 	 -7.48133 	 88.9264 	 
C 	 -17.8797 	 -6.80885 	 87.7834 	 
C 	 -18.1351 	 -7.4737 	 86.6067 	 
H 	 -18.493 	 -7.05137 	 89.9913 	 
C 	 -17.2776 	 -5.43892 	 87.907 	 
H 	 -17.9889 	 -4.77227 	 88.3599 	 
H 	 -17.1501 	 -5.02158 	 86.9193 	 
C 	 -16.1715 	 -5.3437 	 88.8864 	 
H 	 -15.696 	 -6.37935 	 89.001 	 
H 	 -16.5884 	 -5.10286 	 89.8821 	 
C 	 -15.0415 	 -4.37472 	 88.6116 	 
H 	 -14.326 	 -4.2659 	 89.3917 	 
H 	 -15.3157 	 -3.41616 	 88.1723 	 
H 	 -14.4487 	 -4.70868 	 87.7827 	 
H 	 -17.4671 	 -7.35478 	 81.7664 	 
H 	 -19.344 	 -9.36799 	 89.416 	 
