34

S 	 5.73048 	 79.9068 	 48.2057 	 
C 	 6.20575 	 78.2309 	 48.524 	 
C 	 5.37577 	 77.2433 	 47.976 	 
C 	 4.39077 	 77.9209 	 47.1847 	 
C 	 4.4312 	 79.2968 	 47.204 	 
H 	 3.60535 	 77.5123 	 46.6378 	 
C 	 5.52248 	 75.7763 	 47.9373 	 
H 	 6.4187 	 75.476 	 48.5071 	 
H 	 5.44007 	 75.4122 	 46.9097 	 
C 	 4.42589 	 75.0263 	 48.7931 	 
H 	 4.35209 	 75.4751 	 49.7875 	 
H 	 3.44658 	 75.207 	 48.3431 	 
C 	 4.54629 	 73.5513 	 48.6997 	 
H 	 3.6776 	 73.0372 	 48.9463 	 
H 	 4.86162 	 73.1218 	 47.7812 	 
H 	 5.26848 	 73.3561 	 49.4957 	 
S 	 4.45398 	 81.2704 	 45.3493 	 
C 	 2.97501 	 81.7219 	 44.5445 	 
C 	 1.86957 	 81.1823 	 45.1623 	 
C 	 2.22042 	 80.2882 	 46.2327 	 
C 	 3.60005 	 80.1624 	 46.4265 	 
H 	 0.831664 	 81.4144 	 44.8035 	 
C 	 1.12117 	 79.5098 	 46.8312 	 
H 	 1.43287 	 78.4761 	 47.1021 	 
H 	 0.516545 	 79.3805 	 45.9151 	 
C 	 0.445865 	 80.2508 	 48.0483 	 
H 	 -0.471572 	 79.7303 	 48.3694 	 
H 	 0.219996 	 81.2588 	 47.6956 	 
C 	 1.22406 	 80.3092 	 49.2799 	 
H 	 0.64438 	 80.9852 	 49.959 	 
H 	 2.23787 	 80.6967 	 49.0057 	 
H 	 1.34336 	 79.2674 	 49.5744 	 
H 	 7.07004 	 77.9661 	 49.0817 	 
H 	 2.85944 	 82.5526 	 43.8152 	 
