34

S 	 9.85913 	 11.5968 	 84.2248 	 
C 	 10.0464 	 11.4083 	 82.4508 	 
C 	 9.19288 	 10.4303 	 82.0259 	 
C 	 8.42201 	 9.80909 	 83.0846 	 
C 	 8.64767 	 10.3802 	 84.3107 	 
H 	 7.78154 	 8.91501 	 82.9434 	 
C 	 9.19553 	 9.74846 	 80.6389 	 
H 	 8.20502 	 9.27048 	 80.3871 	 
H 	 9.8446 	 8.83534 	 80.7119 	 
C 	 9.76092 	 10.5535 	 79.4377 	 
H 	 10.8286 	 10.8224 	 79.6411 	 
H 	 9.68936 	 9.96336 	 78.5739 	 
C 	 9.14304 	 11.925 	 79.157 	 
H 	 8.02277 	 11.7445 	 79.102 	 
H 	 9.36953 	 12.7706 	 79.7726 	 
H 	 9.279 	 12.2741 	 78.1411 	 
S 	 6.78838 	 11.1135 	 86.2911 	 
C 	 6.3811 	 10.0092 	 87.4386 	 
C 	 7.21234 	 8.90229 	 87.4305 	 
C 	 8.00984 	 8.80123 	 86.3285 	 
C 	 7.97452 	 9.99753 	 85.5745 	 
H 	 7.02572 	 8.25064 	 88.239 	 
C 	 8.79779 	 7.62098 	 86.0099 	 
H 	 9.7236 	 7.65842 	 86.5249 	 
H 	 9.06861 	 7.79114 	 84.942 	 
C 	 8.17714 	 6.26166 	 86.3184 	 
H 	 8.08957 	 6.22305 	 87.3712 	 
H 	 8.81406 	 5.39487 	 85.8685 	 
C 	 6.89737 	 5.9677 	 85.6157 	 
H 	 7.1344 	 5.63636 	 84.6096 	 
H 	 6.22145 	 6.77728 	 85.6113 	 
H 	 6.45149 	 5.13046 	 86.1267 	 
H 	 10.8552 	 11.8153 	 81.8138 	 
H 	 5.73248 	 10.1832 	 88.2645 	 
