34

S 	 7.88571 	 22.6276 	 51.9744 	 
C 	 8.77018 	 22.1675 	 53.4901 	 
C 	 9.80942 	 21.265 	 53.2256 	 
C 	 9.99614 	 21.0275 	 51.8461 	 
C 	 9.11084 	 21.7522 	 51.0319 	 
H 	 10.7041 	 20.3498 	 51.3343 	 
C 	 10.7635 	 20.6529 	 54.2534 	 
H 	 10.9298 	 21.3917 	 55.0235 	 
H 	 11.7748 	 20.5106 	 53.8094 	 
C 	 10.3019 	 19.3387 	 54.8463 	 
H 	 9.41187 	 19.6786 	 55.3781 	 
H 	 9.85956 	 18.7468 	 53.9841 	 
C 	 11.1686 	 18.5901 	 55.8089 	 
H 	 11.0945 	 19.1083 	 56.8081 	 
H 	 10.8935 	 17.5859 	 55.9284 	 
H 	 12.1784 	 18.571 	 55.3928 	 
S 	 8.46137 	 19.9083 	 49.3078 	 
C 	 8.45744 	 20.1792 	 47.644 	 
C 	 8.81738 	 21.4844 	 47.3065 	 
C 	 9.11644 	 22.2888 	 48.4615 	 
C 	 8.96538 	 21.5344 	 49.6275 	 
H 	 8.84844 	 21.8118 	 46.2641 	 
C 	 9.55357 	 23.7349 	 48.3287 	 
H 	 10.037 	 24.0306 	 47.4059 	 
H 	 10.1977 	 23.9711 	 49.1826 	 
C 	 8.38788 	 24.7264 	 48.4306 	 
H 	 7.8036 	 24.3959 	 49.1985 	 
H 	 7.69048 	 24.7013 	 47.5764 	 
C 	 8.74821 	 26.2182 	 48.5795 	 
H 	 9.26504 	 26.4462 	 49.5363 	 
H 	 7.85215 	 26.8392 	 48.5665 	 
H 	 9.36567 	 26.6045 	 47.7256 	 
H 	 8.53555 	 22.3787 	 54.5555 	 
H 	 8.25805 	 19.4172 	 46.9622 	 
