34

S 	 -35.7252 	 4.27521 	 99.7101 	 
C 	 -36.1854 	 2.58623 	 99.3765 	 
C 	 -35.1812 	 1.66873 	 99.7125 	 
C 	 -34.0834 	 2.35736 	 100.305 	 
C 	 -34.1959 	 3.70505 	 100.443 	 
H 	 -33.2174 	 1.9087 	 100.662 	 
C 	 -35.2011 	 0.156497 	 99.7283 	 
H 	 -34.4167 	 -0.155398 	 99.0494 	 
H 	 -36.1121 	 -0.159354 	 99.2615 	 
C 	 -34.8864 	 -0.528014 	 101.056 	 
H 	 -33.7812 	 -0.462858 	 101.31 	 
H 	 -35.3958 	 -0.0518728 	 101.927 	 
C 	 -35.3561 	 -1.98481 	 101.234 	 
H 	 -35.1197 	 -2.58946 	 100.397 	 
H 	 -34.9399 	 -2.36699 	 102.124 	 
H 	 -36.4492 	 -2.03537 	 101.257 	 
S 	 -32.8878 	 5.87652 	 99.7857 	 
C 	 -31.5927 	 6.45632 	 100.785 	 
C 	 -31.283 	 5.51046 	 101.695 	 
C 	 -32.2564 	 4.48751 	 101.866 	 
C 	 -33.2196 	 4.63891 	 100.909 	 
H 	 -30.3873 	 5.50677 	 102.273 	 
C 	 -32.114 	 3.51068 	 102.962 	 
H 	 -31.5582 	 2.60802 	 102.573 	 
H 	 -33.0638 	 3.05196 	 103.237 	 
C 	 -31.3939 	 3.98901 	 104.234 	 
H 	 -32.0403 	 4.72561 	 104.661 	 
H 	 -30.3522 	 4.31388 	 104.073 	 
C 	 -31.4728 	 3.02564 	 105.424 	 
H 	 -30.9213 	 2.09675 	 105.26 	 
H 	 -32.51 	 2.76556 	 105.68 	 
H 	 -31.0372 	 3.43406 	 106.366 	 
H 	 -37.0716 	 2.34871 	 98.9256 	 
H 	 -30.9026 	 7.1809 	 100.463 	 
