34

S 	 -35.811 	 44.7445 	 95.9321 	 
C 	 -37.0025 	 45.9334 	 96.3611 	 
C 	 -38.3065 	 45.4179 	 96.4174 	 
C 	 -38.2987 	 43.9856 	 96.032 	 
C 	 -37.0746 	 43.5182 	 95.6812 	 
H 	 -39.0889 	 43.2788 	 96.0836 	 
C 	 -39.5525 	 46.2316 	 96.6301 	 
H 	 -39.2767 	 47.2308 	 97.081 	 
H 	 -40.2301 	 45.7223 	 97.3331 	 
C 	 -40.4031 	 46.3897 	 95.3471 	 
H 	 -40.8467 	 45.3871 	 95.2008 	 
H 	 -41.2652 	 46.9923 	 95.6305 	 
C 	 -39.6199 	 46.8781 	 94.0717 	 
H 	 -38.8434 	 47.638 	 94.3905 	 
H 	 -39.0211 	 46.0849 	 93.7035 	 
H 	 -40.3753 	 47.2028 	 93.344 	 
S 	 -35.8745 	 41.2986 	 96.8338 	 
C 	 -36.0337 	 39.7503 	 96.1363 	 
C 	 -36.9177 	 39.8204 	 95.0689 	 
C 	 -37.2324 	 41.1397 	 94.6865 	 
C 	 -36.7417 	 42.1159 	 95.5448 	 
H 	 -37.1474 	 38.8336 	 94.6674 	 
C 	 -38.11 	 41.4696 	 93.4644 	 
H 	 -37.5701 	 41.0542 	 92.6493 	 
H 	 -38.1968 	 42.5919 	 93.2897 	 
C 	 -39.4816 	 40.7847 	 93.5044 	 
H 	 -40.0587 	 41.2768 	 94.3015 	 
H 	 -39.3093 	 39.7672 	 93.7053 	 
C 	 -40.148 	 41.0309 	 92.128 	 
H 	 -41.102 	 40.5365 	 92.0634 	 
H 	 -39.7029 	 40.5018 	 91.317 	 
H 	 -40.3127 	 42.0459 	 91.8692 	 
H 	 -36.8098 	 46.9876 	 96.5705 	 
H 	 -35.581 	 38.7893 	 96.4186 	 
