34

S 	 -68.1742 	 38.2798 	 144.292 	 
C 	 -69.0086 	 36.7729 	 144.622 	 
C 	 -68.112 	 35.7163 	 144.458 	 
C 	 -66.7672 	 36.1932 	 144.25 	 
C 	 -66.5952 	 37.5492 	 144.036 	 
H 	 -65.7628 	 35.5746 	 144.164 	 
C 	 -68.4327 	 34.2506 	 144.509 	 
H 	 -69.3839 	 34.0326 	 145.106 	 
H 	 -67.6502 	 33.8253 	 145.003 	 
C 	 -68.5388 	 33.5291 	 143.105 	 
H 	 -67.4834 	 33.545 	 142.724 	 
H 	 -69.0298 	 32.5111 	 143.243 	 
C 	 -69.2865 	 34.2664 	 142.067 	 
H 	 -69.3964 	 33.6642 	 141.237 	 
H 	 -70.2625 	 34.474 	 142.474 	 
H 	 -68.7018 	 35.111 	 141.686 	 
S 	 -65.2432 	 39.6664 	 145.104 	 
C 	 -63.568 	 39.9629 	 144.612 	 
C 	 -63.0387 	 38.9451 	 143.87 	 
C 	 -64.0632 	 38.001 	 143.537 	 
C 	 -65.3043 	 38.1991 	 144.079 	 
H 	 -62.0184 	 38.7835 	 143.632 	 
C 	 -63.8617 	 36.8594 	 142.526 	 
H 	 -64.7695 	 36.3853 	 142.283 	 
H 	 -63.2321 	 36.0156 	 142.879 	 
C 	 -63.2716 	 37.2508 	 141.174 	 
H 	 -62.8604 	 36.385 	 140.65 	 
H 	 -62.4805 	 37.905 	 141.466 	 
C 	 -64.2164 	 38.1159 	 140.389 	 
H 	 -63.9556 	 38.0231 	 139.34 	 
H 	 -64.226 	 39.1539 	 140.75 	 
H 	 -65.2688 	 37.8253 	 140.486 	 
H 	 -70.1196 	 36.6054 	 144.753 	 
H 	 -63.0477 	 40.6793 	 145.128 	 
