34

S 	 -33.4904 	 61.1334 	 108.695 	 
C 	 -31.8409 	 61.4833 	 108.229 	 
C 	 -31.2147 	 60.5154 	 107.466 	 
C 	 -32.0436 	 59.3069 	 107.566 	 
C 	 -33.2544 	 59.4925 	 108.169 	 
H 	 -31.8125 	 58.3223 	 107.26 	 
C 	 -29.9198 	 60.703 	 106.708 	 
H 	 -29.3091 	 61.3032 	 107.335 	 
H 	 -30.0432 	 61.3538 	 105.86 	 
C 	 -29.2145 	 59.4681 	 106.146 	 
H 	 -29.0306 	 58.8463 	 107.07 	 
H 	 -29.8739 	 59.0206 	 105.487 	 
C 	 -27.9123 	 59.8598 	 105.526 	 
H 	 -28.0175 	 60.5693 	 104.69 	 
H 	 -27.2304 	 60.2929 	 106.254 	 
H 	 -27.4291 	 59.0697 	 105.057 	 
S 	 -35.7493 	 58.8782 	 107.645 	 
C 	 -36.3233 	 57.259 	 107.921 	 
C 	 -35.4469 	 56.4109 	 108.536 	 
C 	 -34.2303 	 57.1424 	 108.745 	 
C 	 -34.2992 	 58.4495 	 108.264 	 
H 	 -35.5866 	 55.3477 	 108.676 	 
C 	 -33.0069 	 56.584 	 109.443 	 
H 	 -33.4232 	 56.0722 	 110.344 	 
H 	 -32.2186 	 57.2732 	 109.796 	 
C 	 -32.2611 	 55.4837 	 108.559 	 
H 	 -31.6846 	 55.8473 	 107.799 	 
H 	 -32.9002 	 54.6909 	 108.062 	 
C 	 -31.2908 	 54.5888 	 109.413 	 
H 	 -31.7975 	 53.7833 	 109.94 	 
H 	 -30.6979 	 55.1427 	 110.104 	 
H 	 -30.6325 	 54.086 	 108.667 	 
H 	 -31.4963 	 62.4829 	 108.258 	 
H 	 -37.3045 	 56.9799 	 107.682 	 
