34

S 	 -57.5272 	 35.2371 	 91.2277 	 
C 	 -58.9519 	 34.354 	 91.7428 	 
C 	 -60.127 	 34.95 	 91.3401 	 
C 	 -59.8136 	 36.1645 	 90.6021 	 
C 	 -58.4803 	 36.4424 	 90.3934 	 
H 	 -60.5683 	 36.6835 	 90.0307 	 
C 	 -61.5568 	 34.331 	 91.4311 	 
H 	 -62.2825 	 35.0791 	 91.2399 	 
H 	 -61.7522 	 34.0212 	 92.4823 	 
C 	 -61.7544 	 33.0523 	 90.5967 	 
H 	 -61.0785 	 32.2311 	 90.8905 	 
H 	 -62.7971 	 32.7908 	 90.8353 	 
C 	 -61.7803 	 33.2095 	 89.0761 	 
H 	 -61.9354 	 32.3748 	 88.3797 	 
H 	 -62.5497 	 33.9199 	 88.7619 	 
H 	 -60.6995 	 33.4018 	 88.8024 	 
S 	 -58.0757 	 39.1577 	 90.1053 	 
C 	 -57.3743 	 39.7901 	 88.6739 	 
C 	 -57.2238 	 38.8007 	 87.7431 	 
C 	 -57.3011 	 37.4713 	 88.3183 	 
C 	 -57.9566 	 37.5165 	 89.538 	 
H 	 -56.8757 	 39.0699 	 86.7258 	 
C 	 -56.9892 	 36.2205 	 87.4136 	 
H 	 -57.2769 	 36.3635 	 86.4001 	 
H 	 -57.5457 	 35.4406 	 87.7985 	 
C 	 -55.5594 	 35.6857 	 87.634 	 
H 	 -55.5291 	 34.765 	 87.0744 	 
H 	 -55.4323 	 35.4046 	 88.6882 	 
C 	 -54.4547 	 36.7393 	 87.2399 	 
H 	 -54.6604 	 37.2798 	 86.3096 	 
H 	 -53.474 	 36.2592 	 87.1496 	 
H 	 -54.4855 	 37.5725 	 87.9146 	 
H 	 -58.8243 	 33.442 	 92.3249 	 
H 	 -57.2451 	 40.7684 	 88.3538 	 
