34

S 	 -30.7673 	 71.7039 	 158.682 	 
C 	 -29.4741 	 72.552 	 159.418 	 
C 	 -29.4445 	 73.88 	 159.099 	 
C 	 -30.592 	 74.239 	 158.319 	 
C 	 -31.4315 	 73.1907 	 158.046 	 
H 	 -30.8924 	 75.2341 	 158.032 	 
C 	 -28.5117 	 74.9177 	 159.661 	 
H 	 -28.1484 	 74.5124 	 160.616 	 
H 	 -29.1245 	 75.7382 	 159.96 	 
C 	 -27.3173 	 75.1344 	 158.729 	 
H 	 -26.4682 	 75.7084 	 159.081 	 
H 	 -26.8863 	 74.1927 	 158.465 	 
C 	 -27.6528 	 75.8256 	 157.43 	 
H 	 -26.8582 	 75.8126 	 156.729 	 
H 	 -28.4563 	 75.3435 	 156.95 	 
H 	 -27.9361 	 76.8939 	 157.567 	 
S 	 -34.2348 	 73.0204 	 158.263 	 
C 	 -35.2079 	 73.2696 	 156.828 	 
C 	 -34.4393 	 73.5859 	 155.734 	 
C 	 -33.0623 	 73.6211 	 156.022 	 
C 	 -32.7357 	 73.2559 	 157.345 	 
H 	 -34.9043 	 73.7081 	 154.759 	 
C 	 -32.0467 	 73.8898 	 154.984 	 
H 	 -31.0921 	 73.7512 	 155.476 	 
H 	 -32.0069 	 74.946 	 154.85 	 
C 	 -32.1455 	 73.1647 	 153.621 	 
H 	 -31.5572 	 73.8156 	 152.896 	 
H 	 -33.2076 	 73.2265 	 153.388 	 
C 	 -31.4593 	 71.7709 	 153.787 	 
H 	 -31.3809 	 71.2938 	 152.824 	 
H 	 -31.9318 	 71.1458 	 154.479 	 
H 	 -30.4852 	 71.7462 	 154.346 	 
H 	 -28.7733 	 72.0568 	 160.119 	 
H 	 -36.2553 	 73.1612 	 156.691 	 
