34

S 	 3.85071 	 25.0369 	 72.1428 	 
C 	 4.03241 	 24.0412 	 70.7556 	 
C 	 4.84324 	 24.5967 	 69.7466 	 
C 	 5.24003 	 25.9338 	 70.0418 	 
C 	 4.71567 	 26.3597 	 71.2715 	 
H 	 5.88826 	 26.5164 	 69.4432 	 
C 	 5.33915 	 23.9413 	 68.4658 	 
H 	 5.09285 	 24.5512 	 67.6072 	 
H 	 4.73172 	 23.065 	 68.3533 	 
C 	 6.75987 	 23.5718 	 68.4308 	 
H 	 7.13397 	 23.4873 	 67.4169 	 
H 	 7.30944 	 24.3625 	 68.9013 	 
C 	 7.15295 	 22.311 	 69.1451 	 
H 	 8.14624 	 22.2777 	 69.3592 	 
H 	 6.64464 	 22.372 	 70.1162 	 
H 	 6.89709 	 21.3411 	 68.7396 	 
S 	 3.93924 	 28.0937 	 73.2174 	 
C 	 4.30513 	 29.8368 	 72.981 	 
C 	 5.33788 	 30.0051 	 72.1409 	 
C 	 5.60642 	 28.8249 	 71.406 	 
C 	 4.89616 	 27.6649 	 71.7966 	 
H 	 5.62993 	 31.0374 	 71.9037 	 
C 	 6.46936 	 28.9299 	 70.1156 	 
H 	 6.8147 	 29.9274 	 69.8185 	 
H 	 5.79081 	 28.6571 	 69.2914 	 
C 	 7.8563 	 28.1873 	 70.3054 	 
H 	 8.28908 	 27.9551 	 69.338 	 
H 	 7.60569 	 27.2556 	 70.7985 	 
C 	 8.8712 	 28.9177 	 71.2521 	 
H 	 8.98138 	 29.9521 	 70.935 	 
H 	 9.89671 	 28.5817 	 71.2489 	 
H 	 8.58417 	 28.8886 	 72.2691 	 
H 	 3.53262 	 23.0586 	 70.6522 	 
H 	 3.79761 	 30.6399 	 73.4473 	 
