34

S 	 46.8151 	 17.7028 	 82.1852 	 
C 	 46.1616 	 19.0285 	 81.2554 	 
C 	 47.1277 	 19.6705 	 80.494 	 
C 	 48.3661 	 18.9722 	 80.5015 	 
C 	 48.3312 	 17.8654 	 81.3431 	 
H 	 49.2959 	 19.1933 	 79.8895 	 
C 	 46.8456 	 20.9637 	 79.8025 	 
H 	 45.9011 	 21.3907 	 80.1547 	 
H 	 46.6563 	 20.6057 	 78.8021 	 
C 	 47.9955 	 22.0547 	 79.7409 	 
H 	 48.8271 	 21.6285 	 79.2094 	 
H 	 47.5858 	 22.9482 	 79.1577 	 
C 	 48.4866 	 22.4578 	 81.2124 	 
H 	 47.8423 	 23.2142 	 81.7092 	 
H 	 48.7693 	 21.6501 	 81.931 	 
H 	 49.4561 	 22.9425 	 81.1362 	 
S 	 49.5099 	 15.4628 	 81.0481 	 
C 	 50.9904 	 15.1182 	 81.7789 	 
C 	 51.4227 	 16.235 	 82.5419 	 
C 	 50.5461 	 17.3313 	 82.4652 	 
C 	 49.451 	 17.0628 	 81.694 	 
H 	 52.3585 	 16.2111 	 83.1112 	 
C 	 50.8296 	 18.6181 	 83.1703 	 
H 	 49.9381 	 19.2185 	 83.4396 	 
H 	 51.3115 	 19.1524 	 82.4104 	 
C 	 51.7538 	 18.6477 	 84.4311 	 
H 	 52.1053 	 19.6138 	 84.5675 	 
H 	 52.7275 	 18.1385 	 84.3617 	 
C 	 50.911 	 18.1251 	 85.667 	 
H 	 50.3895 	 17.1422 	 85.5579 	 
H 	 50.24 	 18.9313 	 86.0171 	 
H 	 51.6231 	 17.9339 	 86.4417 	 
H 	 45.2631 	 19.5387 	 81.5321 	 
H 	 51.561 	 14.2461 	 81.7806 	 
