34

S 	 56.1346 	 22.14 	 46.8121 	 
C 	 57.7941 	 22.6291 	 46.6232 	 
C 	 58.5229 	 21.6732 	 46.0001 	 
C 	 57.7184 	 20.4944 	 45.604 	 
C 	 56.4084 	 20.5676 	 46.0653 	 
H 	 58.0665 	 19.6378 	 44.9588 	 
C 	 59.9542 	 21.8729 	 45.4658 	 
H 	 60.1446 	 22.9092 	 45.3878 	 
H 	 60.0995 	 21.4899 	 44.4297 	 
C 	 61.021 	 21.2301 	 46.386 	 
H 	 62.0105 	 21.2394 	 45.9185 	 
H 	 61.1992 	 21.8515 	 47.2755 	 
C 	 60.7851 	 19.719 	 46.8379 	 
H 	 59.8617 	 19.7999 	 47.329 	 
H 	 60.5707 	 19.0045 	 45.9294 	 
H 	 61.5351 	 19.4749 	 47.5709 	 
S 	 54.53 	 19.2126 	 47.5444 	 
C 	 53.7239 	 17.9044 	 46.7862 	 
C 	 54.0487 	 17.7056 	 45.4641 	 
C 	 54.9903 	 18.6815 	 45.0084 	 
C 	 55.348 	 19.6051 	 45.9992 	 
H 	 53.5394 	 17.0237 	 44.8541 	 
C 	 55.5932 	 18.6838 	 43.5833 	 
H 	 56.2577 	 17.8358 	 43.3846 	 
H 	 56.0965 	 19.7062 	 43.4489 	 
C 	 54.4921 	 18.6081 	 42.5055 	 
H 	 53.7342 	 19.3481 	 42.837 	 
H 	 53.9809 	 17.5853 	 42.5309 	 
C 	 54.9698 	 18.7769 	 41.1034 	 
H 	 55.5952 	 17.9656 	 40.973 	 
H 	 55.4549 	 19.7608 	 40.8376 	 
H 	 54.1477 	 18.6653 	 40.4184 	 
H 	 58.1422 	 23.638 	 46.7293 	 
H 	 53.0589 	 17.3035 	 47.369 	 
