34

S 	 0.626738 	 -18.2387 	 81.5357 	 
C 	 0.203047 	 -19.2192 	 82.9099 	 
C 	 -0.354284 	 -18.4424 	 83.9491 	 
C 	 -0.592279 	 -17.1029 	 83.5738 	 
C 	 -0.126451 	 -16.8255 	 82.256 	 
H 	 -0.935428 	 -16.284 	 84.2385 	 
C 	 -0.957131 	 -19.0394 	 85.216 	 
H 	 -0.823911 	 -18.243 	 86.0079 	 
H 	 -0.238087 	 -19.8847 	 85.4282 	 
C 	 -2.39351 	 -19.4551 	 85.2542 	 
H 	 -2.49192 	 -20.2988 	 84.5249 	 
H 	 -2.48571 	 -19.8186 	 86.2564 	 
C 	 -3.45887 	 -18.389 	 85.0239 	 
H 	 -2.94412 	 -17.4219 	 85.275 	 
H 	 -3.64753 	 -18.2971 	 83.9433 	 
H 	 -4.39649 	 -18.5037 	 85.5492 	 
S 	 -1.42086 	 -15.4238 	 80.2111 	 
C 	 -0.911019 	 -13.7461 	 80.0436 	 
C 	 0.107081 	 -13.3873 	 80.9012 	 
C 	 0.429777 	 -14.4231 	 81.7638 	 
C 	 -0.283029 	 -15.5816 	 81.5296 	 
H 	 0.62358 	 -12.4421 	 80.8034 	 
C 	 1.361 	 -14.099 	 82.9556 	 
H 	 2.26197 	 -13.6508 	 82.4462 	 
H 	 1.58856 	 -15.055 	 83.4198 	 
C 	 0.660098 	 -13.0909 	 83.9649 	 
H 	 -0.32929 	 -13.5052 	 84.1769 	 
H 	 0.516692 	 -12.1354 	 83.4571 	 
C 	 1.34555 	 -12.9432 	 85.2665 	 
H 	 1.51115 	 -13.9394 	 85.6758 	 
H 	 0.793863 	 -12.4645 	 86.0694 	 
H 	 2.36263 	 -12.5898 	 85.2051 	 
H 	 0.423562 	 -20.2935 	 83.0654 	 
H 	 -1.37429 	 -13.0347 	 79.4325 	 
