34

S 	 -36.8363 	 68.2847 	 172.168 	 
C 	 -35.7441 	 69.0769 	 171.072 	 
C 	 -35.1436 	 70.1896 	 171.71 	 
C 	 -35.5592 	 70.2429 	 173.097 	 
C 	 -36.3241 	 69.1776 	 173.548 	 
H 	 -35.2154 	 70.9503 	 173.84 	 
C 	 -34.2736 	 71.2477 	 171.038 	 
H 	 -34.5172 	 71.3785 	 169.997 	 
H 	 -33.2178 	 70.858 	 170.972 	 
C 	 -34.2277 	 72.7265 	 171.623 	 
H 	 -35.1745 	 73.1581 	 171.769 	 
H 	 -33.8101 	 72.6068 	 172.598 	 
C 	 -33.3542 	 73.6752 	 170.788 	 
H 	 -33.8906 	 73.8176 	 169.798 	 
H 	 -33.0722 	 74.5743 	 171.331 	 
H 	 -32.4034 	 73.2468 	 170.559 	 
S 	 -38.2984 	 69.2372 	 175.608 	 
C 	 -37.7575 	 69.0066 	 177.268 	 
C 	 -36.4844 	 68.5804 	 177.295 	 
C 	 -35.792 	 68.7086 	 176.054 	 
C 	 -36.6258 	 68.9481 	 174.967 	 
H 	 -35.9174 	 68.3841 	 178.156 	 
C 	 -34.2961 	 68.5509 	 175.983 	 
H 	 -33.9954 	 68.9885 	 175.108 	 
H 	 -33.9923 	 67.5212 	 176.046 	 
C 	 -33.4604 	 69.3762 	 177.075 	 
H 	 -32.3985 	 69.2866 	 177.111 	 
H 	 -33.9048 	 69.1341 	 178.009 	 
C 	 -33.717 	 70.8822 	 176.925 	 
H 	 -34.7812 	 71.2425 	 176.882 	 
H 	 -33.2244 	 71.4882 	 176.172 	 
H 	 -33.3973 	 71.3384 	 177.91 	 
H 	 -35.5837 	 68.8779 	 170.046 	 
H 	 -38.4215 	 69.1022 	 178.117 	 
