34

S 	 53.653 	 13.4184 	 51.0658 	 
C 	 53.7554 	 14.9589 	 50.2249 	 
C 	 53.7847 	 15.9783 	 51.1371 	 
C 	 53.8599 	 15.5564 	 52.4758 	 
C 	 53.8118 	 14.2005 	 52.6752 	 
H 	 53.6877 	 16.2177 	 53.2846 	 
C 	 53.6532 	 17.4077 	 50.8274 	 
H 	 53.6489 	 18.0374 	 51.6977 	 
H 	 52.7193 	 17.5052 	 50.3319 	 
C 	 54.7025 	 17.9459 	 49.8045 	 
H 	 54.7027 	 17.4198 	 48.7833 	 
H 	 54.4095 	 18.9225 	 49.5374 	 
C 	 56.1248 	 18.0019 	 50.2908 	 
H 	 56.2423 	 18.6797 	 51.1614 	 
H 	 56.4724 	 17.0402 	 50.4652 	 
H 	 56.8087 	 18.3207 	 49.4867 	 
S 	 55.3364 	 12.8424 	 54.6501 	 
C 	 54.5188 	 12.2905 	 56.089 	 
C 	 53.1223 	 12.587 	 55.9339 	 
C 	 52.7542 	 13.1996 	 54.7862 	 
C 	 53.8087 	 13.3993 	 53.9455 	 
H 	 52.4816 	 12.3949 	 56.7924 	 
C 	 51.3197 	 13.6551 	 54.485 	 
H 	 50.7711 	 13.1134 	 55.2195 	 
H 	 51.1408 	 13.146 	 53.4723 	 
C 	 50.9487 	 15.1813 	 54.5273 	 
H 	 50.941 	 15.5156 	 53.4653 	 
H 	 51.7119 	 15.7036 	 55.1396 	 
C 	 49.5515 	 15.5159 	 55.1229 	 
H 	 48.7282 	 14.976 	 54.696 	 
H 	 49.4332 	 16.521 	 55.1422 	 
H 	 49.5435 	 15.1973 	 56.2234 	 
H 	 53.5222 	 15.1385 	 49.1518 	 
H 	 54.9052 	 11.8094 	 56.9567 	 
