34

S 	 -31.0313 	 66.092 	 117.726 	 
C 	 -32.3378 	 65.0934 	 118.479 	 
C 	 -31.7963 	 64.445 	 119.576 	 
C 	 -30.3438 	 64.5243 	 119.626 	 
C 	 -29.7865 	 65.4449 	 118.779 	 
H 	 -29.7687 	 64.0459 	 120.386 	 
C 	 -32.5082 	 63.5733 	 120.534 	 
H 	 -33.4135 	 64.0584 	 120.881 	 
H 	 -32.0125 	 63.5772 	 121.517 	 
C 	 -32.7863 	 62.1713 	 119.993 	 
H 	 -33.4614 	 61.6278 	 120.614 	 
H 	 -33.0271 	 62.2961 	 118.937 	 
C 	 -31.5457 	 61.258 	 119.901 	 
H 	 -30.828 	 61.6907 	 119.235 	 
H 	 -31.0582 	 61.1999 	 120.882 	 
H 	 -31.8391 	 60.2749 	 119.545 	 
S 	 -27.8591 	 67.3364 	 119.555 	 
C 	 -26.1583 	 66.995 	 119.186 	 
C 	 -26.0148 	 65.8961 	 118.394 	 
C 	 -27.2582 	 65.2075 	 118.116 	 
C 	 -28.3711 	 65.8029 	 118.666 	 
H 	 -25.0041 	 65.5913 	 117.97 	 
C 	 -27.2443 	 63.8023 	 117.595 	 
H 	 -26.5149 	 63.6764 	 116.767 	 
H 	 -28.2737 	 63.6295 	 117.271 	 
C 	 -26.9573 	 62.7508 	 118.632 	 
H 	 -27.4513 	 63.1685 	 119.517 	 
H 	 -25.955 	 62.768 	 118.999 	 
C 	 -27.6471 	 61.4243 	 118.321 	 
H 	 -27.3275 	 61.0745 	 117.333 	 
H 	 -28.689 	 61.5845 	 118.3 	 
H 	 -27.4689 	 60.6882 	 119.133 	 
H 	 -33.3819 	 65.0998 	 118.153 	 
H 	 -25.3258 	 67.6774 	 119.326 	 
