34

S 	 20.0802 	 32.0614 	 55.96 	 
C 	 18.8441 	 33.0024 	 56.7807 	 
C 	 19.2363 	 34.2172 	 57.1658 	 
C 	 20.5855 	 34.4919 	 56.7652 	 
C 	 21.1965 	 33.4217 	 56.1545 	 
H 	 21.0567 	 35.4417 	 56.8088 	 
C 	 18.266 	 35.2717 	 57.647 	 
H 	 17.2273 	 35.0634 	 57.3473 	 
H 	 18.6071 	 36.1813 	 57.1676 	 
C 	 18.2273 	 35.5733 	 59.1327 	 
H 	 17.92 	 34.6622 	 59.6396 	 
H 	 19.3153 	 35.7907 	 59.2828 	 
C 	 17.4485 	 36.8514 	 59.712 	 
H 	 17.7477 	 37.1192 	 60.7565 	 
H 	 17.7798 	 37.719 	 59.0995 	 
H 	 16.3539 	 36.7034 	 59.6708 	 
S 	 23.7658 	 33.2731 	 56.8702 	 
C 	 24.9574 	 33.449 	 55.6131 	 
C 	 24.4291 	 33.3931 	 54.3671 	 
C 	 23.0103 	 33.3882 	 54.4077 	 
C 	 22.5183 	 33.3412 	 55.6825 	 
H 	 25.0325 	 33.622 	 53.5058 	 
C 	 22.1383 	 33.7097 	 53.2396 	 
H 	 21.1344 	 33.6679 	 53.6573 	 
H 	 22.2726 	 32.8591 	 52.6735 	 
C 	 22.4484 	 35.0964 	 52.5367 	 
H 	 23.1966 	 34.9398 	 51.7501 	 
H 	 22.8672 	 35.726 	 53.3775 	 
C 	 21.3302 	 35.8617 	 51.7973 	 
H 	 20.5618 	 36.1089 	 52.483 	 
H 	 20.8089 	 35.1587 	 51.0712 	 
H 	 21.7397 	 36.7734 	 51.3247 	 
H 	 17.8319 	 32.7482 	 57.0493 	 
H 	 26.0713 	 33.4742 	 55.855 	 
