34

S 	 -1.67508 	 -3.61201 	 79.5309 	 
C 	 -1.37301 	 -1.92569 	 79.1546 	 
C 	 -0.124642 	 -1.57857 	 79.6749 	 
C 	 0.507804 	 -2.57241 	 80.3666 	 
C 	 -0.191987 	 -3.69911 	 80.4707 	 
H 	 1.43776 	 -2.55801 	 80.8967 	 
C 	 0.494508 	 -0.225671 	 79.6326 	 
H 	 0.794212 	 -0.0388078 	 80.6288 	 
H 	 -0.295018 	 0.45384 	 79.3833 	 
C 	 1.48973 	 0.0691186 	 78.5576 	 
H 	 1.95772 	 1.0068 	 78.5883 	 
H 	 2.28741 	 -0.679032 	 78.7652 	 
C 	 0.885627 	 -0.0660467 	 77.1356 	 
H 	 1.70641 	 0.0630369 	 76.4551 	 
H 	 0.441981 	 -1.03825 	 77.0453 	 
H 	 0.123115 	 0.67084 	 76.9361 	 
S 	 1.07059 	 -6.15812 	 80.6044 	 
C 	 0.936778 	 -7.04463 	 82.1622 	 
C 	 0.0693639 	 -6.42961 	 83.0787 	 
C 	 -0.414517 	 -5.13499 	 82.5699 	 
C 	 0.0487004 	 -4.84331 	 81.3081 	 
H 	 -0.184464 	 -6.79738 	 84.0779 	 
C 	 -1.32989 	 -4.18092 	 83.2931 	 
H 	 -2.15922 	 -4.754 	 83.7369 	 
H 	 -1.86555 	 -3.5626 	 82.6001 	 
C 	 -0.781962 	 -3.29928 	 84.4182 	 
H 	 -1.66952 	 -2.93534 	 84.9817 	 
H 	 -0.306822 	 -2.41353 	 83.9149 	 
C 	 0.25753 	 -3.90227 	 85.4044 	 
H 	 0.0693484 	 -4.94299 	 85.6893 	 
H 	 0.34871 	 -3.28421 	 86.2827 	 
H 	 1.27976 	 -3.8042 	 85.0662 	 
H 	 -2.02689 	 -1.26556 	 78.5279 	 
H 	 1.38497 	 -7.95551 	 82.3351 	 
