34

S 	 -6.86597 	 -11.0718 	 86.5862 	 
C 	 -6.96339 	 -12.4831 	 87.5941 	 
C 	 -5.95697 	 -13.4195 	 87.225 	 
C 	 -5.30833 	 -13.0225 	 86.05 	 
C 	 -5.67613 	 -11.7737 	 85.5735 	 
H 	 -4.48238 	 -13.6452 	 85.6853 	 
C 	 -5.55516 	 -14.606 	 88.1367 	 
H 	 -6.14526 	 -14.4668 	 89.0421 	 
H 	 -4.53568 	 -14.3934 	 88.3947 	 
C 	 -5.92379 	 -15.9901 	 87.5166 	 
H 	 -6.9992 	 -16.045 	 87.372 	 
H 	 -5.5274 	 -16.0467 	 86.5095 	 
C 	 -5.4986 	 -17.2118 	 88.3861 	 
H 	 -6.08383 	 -17.9798 	 87.9886 	 
H 	 -4.48775 	 -17.2543 	 88.0538 	 
H 	 -5.52918 	 -17.0649 	 89.5023 	 
S 	 -4.54176 	 -9.39899 	 84.6023 	 
C 	 -3.81966 	 -9.51128 	 82.9463 	 
C 	 -4.16976 	 -10.6349 	 82.3021 	 
C 	 -4.81445 	 -11.6225 	 83.1494 	 
C 	 -5.14628 	 -11.072 	 84.3939 	 
H 	 -3.84358 	 -10.6651 	 81.2892 	 
C 	 -5.19237 	 -12.9641 	 82.5982 	 
H 	 -5.54538 	 -13.5074 	 83.4509 	 
H 	 -4.33624 	 -13.4983 	 82.2753 	 
C 	 -6.22908 	 -12.9265 	 81.5994 	 
H 	 -5.91291 	 -12.4444 	 80.7228 	 
H 	 -6.90351 	 -12.2046 	 81.9997 	 
C 	 -6.91225 	 -14.2788 	 81.5093 	 
H 	 -6.22907 	 -15.0332 	 81.0697 	 
H 	 -7.81634 	 -14.2252 	 80.9009 	 
H 	 -7.11724 	 -14.7754 	 82.5052 	 
H 	 -7.53087 	 -12.5855 	 88.4351 	 
H 	 -3.3381 	 -8.70093 	 82.4101 	 
