34

S 	 8.4902 	 25.615 	 40.3898 	 
C 	 6.82603 	 26.1685 	 40.8217 	 
C 	 6.10465 	 25.201 	 41.5345 	 
C 	 6.92135 	 24.0264 	 41.7176 	 
C 	 8.17798 	 24.1024 	 41.1788 	 
H 	 6.53795 	 23.0475 	 42.1999 	 
C 	 4.61887 	 25.2816 	 41.9534 	 
H 	 4.15593 	 24.5363 	 41.2824 	 
H 	 4.2408 	 26.2591 	 41.7496 	 
C 	 4.27915 	 24.9926 	 43.4128 	 
H 	 3.20973 	 24.7748 	 43.5042 	 
H 	 4.7859 	 24.0874 	 43.7728 	 
C 	 4.72897 	 26.1812 	 44.2857 	 
H 	 4.96691 	 25.7723 	 45.3437 	 
H 	 5.61589 	 26.7531 	 44.0266 	 
H 	 4.01312 	 26.9114 	 44.3552 	 
S 	 10.5876 	 23.6903 	 42.4323 	 
C 	 11.3338 	 22.1639 	 42.4188 	 
C 	 10.5409 	 21.2317 	 41.7389 	 
C 	 9.3117 	 21.7673 	 41.2354 	 
C 	 9.22133 	 23.1494 	 41.5093 	 
H 	 10.8874 	 20.2554 	 41.5889 	 
C 	 8.35794 	 20.8971 	 40.493 	 
H 	 8.12348 	 21.3889 	 39.5715 	 
H 	 7.39051 	 20.796 	 40.9567 	 
C 	 8.90353 	 19.5467 	 40.1423 	 
H 	 9.08942 	 19.0108 	 41.0364 	 
H 	 9.75411 	 19.5247 	 39.5137 	 
C 	 7.90133 	 18.747 	 39.3825 	 
H 	 6.9368 	 18.7145 	 39.8408 	 
H 	 8.25583 	 17.7808 	 39.1145 	 
H 	 7.81851 	 19.2426 	 38.4269 	 
H 	 6.4128 	 27.041 	 40.4762 	 
H 	 12.2733 	 21.9302 	 42.8681 	 
