34

S 	 4.94001 	 -22.2745 	 61.4114 	 
C 	 6.13121 	 -21.0551 	 61.0132 	 
C 	 5.48719 	 -19.8362 	 60.6291 	 
C 	 4.05929 	 -19.932 	 60.678 	 
C 	 3.59715 	 -21.1698 	 61.0185 	 
H 	 3.37193 	 -19.1277 	 60.3008 	 
C 	 6.11232 	 -18.5097 	 60.1372 	 
H 	 5.36889 	 -17.9939 	 59.6168 	 
H 	 6.83872 	 -18.7001 	 59.3302 	 
C 	 6.80304 	 -17.6862 	 61.2993 	 
H 	 7.32773 	 -16.8162 	 60.9556 	 
H 	 6.07892 	 -17.3361 	 61.9546 	 
C 	 7.77804 	 -18.4314 	 62.1912 	 
H 	 8.67889 	 -18.8432 	 61.7012 	 
H 	 8.27186 	 -17.7482 	 62.8146 	 
H 	 7.35624 	 -19.2011 	 62.7564 	 
S 	 1.86359 	 -22.7554 	 59.5205 	 
C 	 0.189269 	 -22.6929 	 59.9298 	 
C 	 -0.110345 	 -21.7728 	 60.8816 	 
C 	 1.06609 	 -21.1141 	 61.2893 	 
C 	 2.23315 	 -21.7058 	 60.8217 	 
H 	 -1.0683 	 -21.4501 	 61.1269 	 
C 	 1.04651 	 -20.0119 	 62.2817 	 
H 	 0.552544 	 -19.1048 	 61.8542 	 
H 	 2.04497 	 -19.6457 	 62.443 	 
C 	 0.322668 	 -20.3244 	 63.6051 	 
H 	 -0.696946 	 -20.5613 	 63.5656 	 
H 	 0.215275 	 -19.3423 	 64.0083 	 
C 	 1.12785 	 -21.2568 	 64.5532 	 
H 	 2.16798 	 -20.9916 	 64.6888 	 
H 	 1.15064 	 -22.309 	 64.1714 	 
H 	 0.691278 	 -21.2167 	 65.5108 	 
H 	 7.18299 	 -21.2561 	 61.094 	 
H 	 -0.630959 	 -23.2715 	 59.5844 	 
