34

S 	 21.4563 	 0.147467 	 76.7341 	 
C 	 22.8447 	 0.368715 	 77.8736 	 
C 	 22.5215 	 1.11975 	 79.0078 	 
C 	 21.1718 	 1.60126 	 78.9344 	 
C 	 20.5012 	 1.17132 	 77.8051 	 
H 	 20.6546 	 2.25989 	 79.6604 	 
C 	 23.4922 	 1.5776 	 80.1327 	 
H 	 24.4249 	 1.26302 	 79.7086 	 
H 	 23.175 	 1.16593 	 81.0684 	 
C 	 23.5478 	 3.11796 	 80.3678 	 
H 	 23.827 	 3.6989 	 79.409 	 
H 	 22.5754 	 3.53128 	 80.6799 	 
C 	 24.6184 	 3.45425 	 81.3755 	 
H 	 24.6085 	 4.50477 	 81.5157 	 
H 	 24.4712 	 3.10438 	 82.4308 	 
H 	 25.6389 	 3.25448 	 81.069 	 
S 	 17.9887 	 -0.135557 	 78.0664 	 
C 	 16.5397 	 0.807648 	 77.767 	 
C 	 16.8145 	 2.13234 	 77.5948 	 
C 	 18.1885 	 2.42577 	 77.5836 	 
C 	 19.008 	 1.26173 	 77.7116 	 
H 	 15.9988 	 2.85126 	 77.4137 	 
C 	 18.7515 	 3.87173 	 77.586 	 
H 	 19.838 	 3.79179 	 77.6382 	 
H 	 18.5217 	 4.41349 	 78.4663 	 
C 	 18.2811 	 4.69258 	 76.3564 	 
H 	 17.1823 	 4.61534 	 76.2355 	 
H 	 18.7186 	 4.1286 	 75.5285 	 
C 	 18.7151 	 6.17198 	 76.2968 	 
H 	 19.2357 	 6.56598 	 77.1889 	 
H 	 17.8448 	 6.79941 	 76.0438 	 
H 	 19.4507 	 6.23092 	 75.4802 	 
H 	 23.7967 	 -0.0179012 	 77.7254 	 
H 	 15.5486 	 0.465197 	 77.7227 	 
