34

S 	 46.051 	 23.9965 	 90.0084 	 
C 	 45.6125 	 24.1565 	 91.6704 	 
C 	 46.5952 	 23.5946 	 92.5062 	 
C 	 47.636 	 23.0173 	 91.7429 	 
C 	 47.5431 	 23.232 	 90.3549 	 
H 	 48.4499 	 22.4727 	 92.1813 	 
C 	 46.4468 	 23.339 	 93.9633 	 
H 	 46.326 	 22.2563 	 94.0905 	 
H 	 45.5254 	 23.7363 	 94.3337 	 
C 	 47.5918 	 23.9745 	 94.8077 	 
H 	 47.4713 	 23.7813 	 95.8817 	 
H 	 48.4743 	 23.4046 	 94.5358 	 
C 	 47.8366 	 25.5179 	 94.4218 	 
H 	 48.557 	 25.9594 	 95.1017 	 
H 	 48.2616 	 25.734 	 93.3897 	 
H 	 46.9276 	 26.0996 	 94.62 	 
S 	 47.8483 	 21.9957 	 87.9749 	 
C 	 49.4331 	 22.013 	 87.1894 	 
C 	 50.4258 	 22.514 	 88.0606 	 
C 	 49.8679 	 22.9752 	 89.3094 	 
C 	 48.4887 	 22.8614 	 89.3207 	 
H 	 51.4188 	 22.6259 	 87.8209 	 
C 	 50.7468 	 23.6008 	 90.4093 	 
H 	 51.1764 	 22.7917 	 91.067 	 
H 	 50.0888 	 24.1828 	 90.9962 	 
C 	 51.7676 	 24.616 	 89.8452 	 
H 	 51.2245 	 25.1386 	 88.9867 	 
H 	 52.5102 	 23.9533 	 89.4581 	 
C 	 52.3495 	 25.6563 	 90.8163 	 
H 	 51.6022 	 26.4318 	 90.9945 	 
H 	 53.2723 	 26.0889 	 90.3018 	 
H 	 52.6559 	 25.3459 	 91.8118 	 
H 	 44.6793 	 24.5163 	 91.9679 	 
H 	 49.6055 	 21.5703 	 86.249 	 
