34

S 	 40.4184 	 29.0828 	 82.5488 	 
C 	 39.0285 	 28.8391 	 83.5758 	 
C 	 39.4077 	 28.4849 	 84.8829 	 
C 	 40.8194 	 28.2888 	 84.9491 	 
C 	 41.557 	 28.4798 	 83.7884 	 
H 	 41.4204 	 27.9065 	 85.7573 	 
C 	 38.4158 	 28.2289 	 85.9554 	 
H 	 38.8707 	 28.0271 	 86.8794 	 
H 	 38.0987 	 27.1965 	 85.7611 	 
C 	 37.4014 	 29.3649 	 86.189 	 
H 	 37.9269 	 30.3121 	 86.3761 	 
H 	 36.8457 	 29.5634 	 85.2598 	 
C 	 36.2875 	 28.9081 	 87.117 	 
H 	 35.9175 	 27.8601 	 86.8702 	 
H 	 36.7318 	 28.6932 	 88.1533 	 
H 	 35.4753 	 29.6171 	 87.2458 	 
S 	 43.7889 	 29.1464 	 82.313 	 
C 	 45.2625 	 28.2051 	 82.4666 	 
C 	 45.0728 	 27.1797 	 83.4196 	 
C 	 43.7885 	 27.0629 	 83.9208 	 
C 	 42.9285 	 28.1025 	 83.5029 	 
H 	 45.8377 	 26.5264 	 83.7175 	 
C 	 43.2651 	 26.015 	 84.8406 	 
H 	 43.5371 	 25.0684 	 84.416 	 
H 	 42.2153 	 25.8499 	 84.6696 	 
C 	 43.5166 	 26.2492 	 86.3065 	 
H 	 43.1892 	 27.2213 	 86.6288 	 
H 	 44.6241 	 26.286 	 86.5562 	 
C 	 42.705 	 25.3372 	 87.2572 	 
H 	 42.9588 	 25.5615 	 88.2721 	 
H 	 43.0066 	 24.2736 	 87.1455 	 
H 	 41.6223 	 25.4517 	 87.0991 	 
H 	 37.9959 	 28.8983 	 83.2748 	 
H 	 46.2215 	 28.2886 	 82.0177 	 
