34

S 	 8.97295 	 22.3049 	 37.5432 	 
C 	 10.3161 	 21.9074 	 36.5367 	 
C 	 11.476 	 21.5063 	 37.2773 	 
C 	 11.2789 	 21.6485 	 38.6648 	 
C 	 10.053 	 22.24 	 38.9773 	 
H 	 11.9708 	 21.447 	 39.5221 	 
C 	 12.8193 	 21.1786 	 36.605 	 
H 	 12.7405 	 20.2124 	 36.1323 	 
H 	 13.611 	 21.0431 	 37.2899 	 
C 	 13.2844 	 22.1456 	 35.5093 	 
H 	 12.5151 	 22.2184 	 34.8194 	 
H 	 13.3591 	 23.2226 	 35.7758 	 
C 	 14.6275 	 21.6857 	 34.7594 	 
H 	 14.9143 	 22.3629 	 33.988 	 
H 	 15.4019 	 21.6121 	 35.5722 	 
H 	 14.4232 	 20.7086 	 34.3476 	 
S 	 7.93036 	 21.9537 	 40.7084 	 
C 	 8.13128 	 22.2319 	 42.3933 	 
C 	 9.44138 	 22.5572 	 42.7125 	 
C 	 10.3052 	 22.6749 	 41.555 	 
C 	 9.60981 	 22.35 	 40.3494 	 
H 	 9.70578 	 22.6605 	 43.7409 	 
C 	 11.8008 	 23.1252 	 41.7573 	 
H 	 12.3966 	 23.1047 	 40.8287 	 
H 	 12.2375 	 22.4963 	 42.5499 	 
C 	 11.9079 	 24.5776 	 42.275 	 
H 	 11.2733 	 24.6178 	 43.164 	 
H 	 11.4182 	 25.085 	 41.4459 	 
C 	 13.2873 	 25.0869 	 42.4971 	 
H 	 13.2518 	 26.1763 	 42.3997 	 
H 	 13.8932 	 24.7777 	 41.6195 	 
H 	 13.7728 	 24.6167 	 43.3002 	 
H 	 10.2161 	 21.966 	 35.4584 	 
H 	 7.28474 	 22.0661 	 43.0041 	 
