34

S 	 38.2301 	 18.152 	 47.779 	 
C 	 37.8534 	 19.362 	 49.0301 	 
C 	 37.8924 	 18.8239 	 50.3156 	 
C 	 38.0541 	 17.3751 	 50.2929 	 
C 	 38.1978 	 16.9319 	 49.0181 	 
H 	 37.9173 	 16.7269 	 51.0999 	 
C 	 37.4883 	 19.5766 	 51.5666 	 
H 	 38.4003 	 19.6168 	 52.1497 	 
H 	 36.7992 	 18.8972 	 52.1047 	 
C 	 36.9539 	 21.0023 	 51.3799 	 
H 	 37.8617 	 21.6142 	 51.4115 	 
H 	 36.4178 	 21.214 	 50.45 	 
C 	 36.2653 	 21.518 	 52.6554 	 
H 	 36.3148 	 22.6263 	 52.7707 	 
H 	 35.2313 	 21.2423 	 52.6267 	 
H 	 36.6034 	 20.9835 	 53.5173 	 
S 	 37.3128 	 14.9063 	 47.2994 	 
C 	 38.3908 	 13.611 	 47.0894 	 
C 	 39.3468 	 13.5299 	 48.1044 	 
C 	 39.2475 	 14.5801 	 49.0855 	 
C 	 38.3762 	 15.5201 	 48.5817 	 
H 	 40.0429 	 12.7355 	 48.1584 	 
C 	 40.2764 	 14.7931 	 50.2062 	 
H 	 40.3729 	 13.8509 	 50.7442 	 
H 	 39.8195 	 15.4594 	 50.9891 	 
C 	 41.6603 	 15.2817 	 49.7109 	 
H 	 41.9152 	 14.5523 	 49.01 	 
H 	 42.2816 	 15.1778 	 50.6165 	 
C 	 41.6511 	 16.7271 	 49.1166 	 
H 	 41.3215 	 17.4328 	 49.8824 	 
H 	 40.9915 	 16.8362 	 48.2071 	 
H 	 42.678 	 16.9711 	 48.8587 	 
H 	 37.5732 	 20.3774 	 48.7858 	 
H 	 38.2969 	 12.7925 	 46.3317 	 
