34

S 	 30.2641 	 -5.92186 	 78.9097 	 
C 	 31.5248 	 -5.37481 	 77.9452 	 
C 	 31.3318 	 -4.00299 	 77.6555 	 
C 	 30.1012 	 -3.44307 	 78.2178 	 
C 	 29.4681 	 -4.35657 	 79.0308 	 
H 	 29.6621 	 -2.41677 	 78.2936 	 
C 	 32.2545 	 -3.18338 	 76.7969 	 
H 	 31.844 	 -2.19119 	 76.7443 	 
H 	 32.1414 	 -3.61227 	 75.8178 	 
C 	 33.7616 	 -3.06982 	 77.0891 	 
H 	 34.146 	 -4.05063 	 77.2987 	 
H 	 34.1905 	 -2.66308 	 76.1934 	 
C 	 34.0898 	 -2.07525 	 78.2192 	 
H 	 35.1968 	 -1.95265 	 78.2704 	 
H 	 33.5743 	 -1.18104 	 78.1608 	 
H 	 33.7789 	 -2.3895 	 79.2792 	 
S 	 26.8112 	 -4.92887 	 79.0556 	 
C 	 25.8357 	 -4.13632 	 80.2331 	 
C 	 26.4874 	 -3.3757 	 81.172 	 
C 	 27.8736 	 -3.24352 	 80.7881 	 
C 	 28.1891 	 -4.04948 	 79.6805 	 
H 	 25.9822 	 -2.83012 	 82.0389 	 
C 	 28.9163 	 -2.48259 	 81.6728 	 
H 	 28.4463 	 -1.8274 	 82.4593 	 
H 	 29.4527 	 -1.74655 	 81.0359 	 
C 	 30.005 	 -3.48879 	 82.2591 	 
H 	 30.8218 	 -3.01543 	 82.8147 	 
H 	 30.4054 	 -4.00235 	 81.4621 	 
C 	 29.4407 	 -4.53942 	 83.2731 	 
H 	 28.4261 	 -4.77198 	 82.9684 	 
H 	 29.4252 	 -4.12667 	 84.2731 	 
H 	 30.0428 	 -5.43271 	 83.2222 	 
H 	 32.2966 	 -5.99953 	 77.5359 	 
H 	 24.7481 	 -4.36554 	 80.3769 	 
