34

S 	 -58.534 	 51.6025 	 135.088 	 
C 	 -57.7152 	 50.7537 	 136.334 	 
C 	 -58.3801 	 50.8828 	 137.535 	 
C 	 -59.5897 	 51.6305 	 137.398 	 
C 	 -59.8781 	 52.06 	 136.141 	 
H 	 -60.3789 	 51.7357 	 138.151 	 
C 	 -58.0038 	 50.0786 	 138.845 	 
H 	 -57.087 	 49.4925 	 138.762 	 
H 	 -58.7212 	 49.2625 	 138.725 	 
C 	 -58.2079 	 50.8426 	 140.118 	 
H 	 -59.0815 	 51.3706 	 140.299 	 
H 	 -58.2149 	 50.0793 	 140.912 	 
C 	 -57.0833 	 51.8209 	 140.489 	 
H 	 -56.8681 	 52.5501 	 139.668 	 
H 	 -57.1707 	 52.3982 	 141.443 	 
H 	 -56.2294 	 51.2259 	 140.654 	 
S 	 -61.9516 	 52.0383 	 134.322 	 
C 	 -63.3673 	 53.1104 	 134.517 	 
C 	 -63.1578 	 53.9727 	 135.572 	 
C 	 -61.8577 	 53.8516 	 136.187 	 
C 	 -61.131 	 52.7862 	 135.697 	 
H 	 -63.8999 	 54.7103 	 135.848 	 
C 	 -61.428 	 54.7963 	 137.305 	 
H 	 -60.547 	 54.3106 	 137.83 	 
H 	 -62.1458 	 54.8422 	 138.133 	 
C 	 -61.0053 	 56.26 	 136.875 	 
H 	 -61.8791 	 56.8611 	 136.546 	 
H 	 -60.3894 	 56.2383 	 135.992 	 
C 	 -60.3495 	 56.9631 	 138.059 	 
H 	 -59.3452 	 56.5716 	 138.342 	 
H 	 -61.0981 	 56.8614 	 138.874 	 
H 	 -60.29 	 58.0366 	 137.785 	 
H 	 -56.8628 	 50.171 	 136.303 	 
H 	 -64.2808 	 53.0848 	 134.035 	 
