34

S 	 -43.7238 	 13.1791 	 77.4348 	 
C 	 -42.3654 	 14.3078 	 77.2611 	 
C 	 -41.4624 	 13.9665 	 76.2067 	 
C 	 -41.9319 	 12.7154 	 75.6645 	 
C 	 -43.0574 	 12.164 	 76.1634 	 
H 	 -41.4086 	 12.2636 	 74.8875 	 
C 	 -40.2845 	 14.7256 	 75.8043 	 
H 	 -40.5555 	 15.8263 	 75.9921 	 
H 	 -40.1794 	 14.5946 	 74.7011 	 
C 	 -39.0171 	 14.3602 	 76.5349 	 
H 	 -38.1676 	 14.9947 	 76.4241 	 
H 	 -39.2549 	 14.4311 	 77.5959 	 
C 	 -38.6024 	 12.937 	 76.2382 	 
H 	 -38.3358 	 12.7195 	 75.2175 	 
H 	 -37.6297 	 12.8727 	 76.7719 	 
H 	 -39.3545 	 12.2442 	 76.6097 	 
S 	 -44.9301 	 10.7146 	 74.6847 	 
C 	 -44.9179 	 8.97306 	 74.8138 	 
C 	 -43.9901 	 8.55827 	 75.7304 	 
C 	 -43.1824 	 9.58069 	 76.3069 	 
C 	 -43.6804 	 10.8307 	 75.9395 	 
H 	 -44.0003 	 7.5129 	 76.0161 	 
C 	 -42.0453 	 9.33118 	 77.3262 	 
H 	 -42.6226 	 8.71876 	 78.0566 	 
H 	 -41.7556 	 10.227 	 77.8921 	 
C 	 -40.9054 	 8.37931 	 76.8664 	 
H 	 -41.3185 	 7.4528 	 76.5754 	 
H 	 -40.3227 	 8.18159 	 77.7873 	 
C 	 -40.2119 	 9.01147 	 75.6859 	 
H 	 -39.8622 	 9.95574 	 75.9698 	 
H 	 -40.8181 	 9.09757 	 74.8178 	 
H 	 -39.3752 	 8.36792 	 75.3639 	 
H 	 -42.2781 	 15.2761 	 77.7841 	 
H 	 -45.6644 	 8.31979 	 74.3683 	 
