34

S 	 52.35 	 3.87034 	 93.3045 	 
C 	 53.6107 	 4.98195 	 93.6492 	 
C 	 53.2276 	 6.22372 	 93.1516 	 
C 	 51.8454 	 6.30354 	 92.7411 	 
C 	 51.1483 	 5.12405 	 92.8906 	 
H 	 51.446 	 7.1673 	 92.3057 	 
C 	 54.1608 	 7.40813 	 93.13 	 
H 	 53.8832 	 7.87262 	 92.2116 	 
H 	 55.1907 	 7.1607 	 92.9606 	 
C 	 53.953 	 8.37058 	 94.2903 	 
H 	 54.692 	 9.19975 	 94.1529 	 
H 	 52.9044 	 8.78414 	 94.3332 	 
C 	 54.3398 	 7.72508 	 95.6943 	 
H 	 54.0349 	 8.50853 	 96.4543 	 
H 	 53.7615 	 6.85031 	 96.0404 	 
H 	 55.3991 	 7.53987 	 95.7598 	 
S 	 49.5432 	 3.34072 	 91.5605 	 
C 	 47.8185 	 3.29452 	 91.8818 	 
C 	 47.4286 	 4.42502 	 92.6091 	 
C 	 48.5105 	 5.21775 	 93.0168 	 
C 	 49.7613 	 4.76696 	 92.6347 	 
H 	 46.3709 	 4.57207 	 92.8457 	 
C 	 48.3199 	 6.58893 	 93.6826 	 
H 	 47.6671 	 7.11664 	 93.0426 	 
H 	 49.174 	 7.23033 	 93.7736 	 
C 	 47.7654 	 6.55656 	 95.1798 	 
H 	 46.9021 	 5.93319 	 95.054 	 
H 	 47.4569 	 7.61419 	 95.4098 	 
C 	 48.6069 	 5.97084 	 96.3219 	 
H 	 48.5905 	 4.88109 	 96.4035 	 
H 	 48.1962 	 6.40118 	 97.2388 	 
H 	 49.6318 	 6.29764 	 96.2322 	 
H 	 54.5927 	 4.65653 	 93.8982 	 
H 	 47.0987 	 2.57508 	 91.4653 	 
