34

S 	 -108.596 	 53.1609 	 118.594 	 
C 	 -109.141 	 51.6558 	 119.241 	 
C 	 -108.101 	 50.7288 	 119.255 	 
C 	 -106.822 	 51.2827 	 119.004 	 
C 	 -106.898 	 52.6241 	 118.665 	 
H 	 -105.861 	 50.8026 	 119.122 	 
C 	 -108.253 	 49.2444 	 119.589 	 
H 	 -107.967 	 48.7684 	 118.668 	 
H 	 -109.312 	 49.1373 	 119.687 	 
C 	 -107.671 	 48.6792 	 120.946 	 
H 	 -108.205 	 49.1396 	 121.808 	 
H 	 -107.716 	 47.5624 	 120.994 	 
C 	 -106.235 	 48.8874 	 121.202 	 
H 	 -105.994 	 48.5558 	 122.251 	 
H 	 -105.719 	 48.3964 	 120.344 	 
H 	 -106.093 	 49.9469 	 121.258 	 
S 	 -104.48 	 53.7241 	 119.607 	 
C 	 -103.295 	 54.0053 	 118.447 	 
C 	 -103.85 	 54.3156 	 117.228 	 
C 	 -105.242 	 54.0082 	 117.183 	 
C 	 -105.789 	 53.517 	 118.407 	 
H 	 -103.182 	 54.5888 	 116.417 	 
C 	 -105.921 	 53.8832 	 115.874 	 
H 	 -105.478 	 54.6357 	 115.182 	 
H 	 -106.958 	 54.0877 	 115.915 	 
C 	 -105.958 	 52.4917 	 115.207 	 
H 	 -106.734 	 51.9127 	 115.704 	 
H 	 -105.021 	 51.9683 	 115.46 	 
C 	 -106.07 	 52.5039 	 113.723 	 
H 	 -105.395 	 53.2833 	 113.253 	 
H 	 -107.09 	 52.6086 	 113.428 	 
H 	 -105.727 	 51.5879 	 113.215 	 
H 	 -110.174 	 51.3356 	 119.278 	 
H 	 -102.29 	 54.1499 	 118.739 	 
