34

S 	 -31.4483 	 38.2885 	 97.5979 	 
C 	 -32.6819 	 37.5448 	 96.5485 	 
C 	 -32.6975 	 38.2443 	 95.3094 	 
C 	 -31.7532 	 39.3404 	 95.2379 	 
C 	 -31.0555 	 39.5797 	 96.3921 	 
H 	 -31.6083 	 40.1049 	 94.5143 	 
C 	 -33.4509 	 37.8559 	 94.077 	 
H 	 -34.2879 	 38.5275 	 93.8786 	 
H 	 -33.9474 	 36.9494 	 94.2768 	 
C 	 -32.6031 	 37.8209 	 92.8071 	 
H 	 -32.1473 	 38.8041 	 92.6004 	 
H 	 -31.7406 	 37.2702 	 93.143 	 
C 	 -33.3196 	 37.3134 	 91.6248 	 
H 	 -34.0367 	 37.9924 	 91.1776 	 
H 	 -32.6385 	 37.0865 	 90.7765 	 
H 	 -33.7786 	 36.3171 	 91.8957 	 
S 	 -28.5127 	 40.0875 	 97.0436 	 
C 	 -27.9943 	 41.7574 	 97.1165 	 
C 	 -29.0925 	 42.6253 	 96.9675 	 
C 	 -30.2428 	 41.9466 	 96.4099 	 
C 	 -30.1204 	 40.5946 	 96.6873 	 
H 	 -28.8913 	 43.7059 	 97.0713 	 
C 	 -31.475 	 42.6901 	 95.8813 	 
H 	 -31.8157 	 43.4255 	 96.6279 	 
H 	 -32.3826 	 42.0339 	 95.8987 	 
C 	 -31.3545 	 43.395 	 94.5586 	 
H 	 -32.3393 	 43.9357 	 94.3154 	 
H 	 -31.3061 	 42.6269 	 93.8023 	 
C 	 -30.1907 	 44.3806 	 94.4423 	 
H 	 -30.2343 	 44.9217 	 93.4996 	 
H 	 -29.1559 	 43.9343 	 94.3922 	 
H 	 -30.227 	 45.0253 	 95.3109 	 
H 	 -33.2218 	 36.6221 	 96.7746 	 
H 	 -27.0105 	 41.969 	 97.4772 	 
