34

S 	 -42.5953 	 16.234 	 82.5462 	 
C 	 -41.4895 	 15.3285 	 81.6245 	 
C 	 -40.5153 	 16.0706 	 80.9457 	 
C 	 -40.8241 	 17.433 	 81.0901 	 
C 	 -41.9714 	 17.6825 	 81.7727 	 
H 	 -40.2486 	 18.2798 	 80.6511 	 
C 	 -39.4 	 15.578 	 79.9978 	 
H 	 -38.9652 	 14.8055 	 80.6088 	 
H 	 -38.8601 	 16.4954 	 79.8337 	 
C 	 -39.8698 	 14.9388 	 78.703 	 
H 	 -39.1284 	 14.511 	 78.2489 	 
H 	 -40.5294 	 14.0904 	 78.8434 	 
C 	 -40.532 	 15.9017 	 77.7115 	 
H 	 -40.0199 	 16.7491 	 77.3674 	 
H 	 -40.7668 	 15.3921 	 76.7964 	 
H 	 -41.4802 	 16.2007 	 78.155 	 
S 	 -41.9609 	 20.292 	 81.0971 	 
C 	 -42.6961 	 21.5355 	 82.1049 	 
C 	 -43.5364 	 20.9628 	 83.0336 	 
C 	 -43.3712 	 19.538 	 83.1382 	 
C 	 -42.4659 	 19.0523 	 82.1615 	 
H 	 -44.1194 	 21.5607 	 83.5908 	 
C 	 -44.1562 	 18.8244 	 84.2555 	 
H 	 -44.5588 	 17.8715 	 83.8425 	 
H 	 -45.0102 	 19.4265 	 84.4759 	 
C 	 -43.4349 	 18.4953 	 85.5465 	 
H 	 -42.5714 	 17.9032 	 85.3706 	 
H 	 -44.2167 	 17.9835 	 86.1191 	 
C 	 -43.0316 	 19.7549 	 86.288 	 
H 	 -43.8565 	 20.2453 	 86.5973 	 
H 	 -42.5128 	 20.3954 	 85.6947 	 
H 	 -42.4463 	 19.4103 	 87.2187 	 
H 	 -41.5249 	 14.258 	 81.4354 	 
H 	 -42.7851 	 22.5398 	 81.8123 	 
