34

S 	 15.8106 	 8.51296 	 87.3837 	 
C 	 16.8356 	 9.32717 	 86.1769 	 
C 	 16.1495 	 10.1501 	 85.2887 	 
C 	 14.7571 	 9.95958 	 85.5184 	 
C 	 14.365 	 9.1437 	 86.6061 	 
H 	 14.0353 	 10.4225 	 84.9878 	 
C 	 16.7598 	 11.0259 	 84.2278 	 
H 	 15.9807 	 11.6909 	 83.9368 	 
H 	 17.0867 	 10.344 	 83.4445 	 
C 	 17.8816 	 11.987 	 84.6743 	 
H 	 18.6576 	 11.4132 	 85.1202 	 
H 	 18.2013 	 12.565 	 83.7855 	 
C 	 17.4682 	 13.0007 	 85.767 	 
H 	 16.7859 	 13.7432 	 85.4356 	 
H 	 16.9326 	 12.4414 	 86.5939 	 
H 	 18.2757 	 13.6038 	 86.021 	 
S 	 12.739 	 9.78225 	 88.6742 	 
C 	 11.084 	 9.14144 	 88.6363 	 
C 	 10.8049 	 8.56089 	 87.4021 	 
C 	 11.8872 	 8.54658 	 86.5084 	 
C 	 13.0361 	 9.07883 	 87.1048 	 
H 	 9.83469 	 8.14809 	 87.2027 	 
C 	 11.8827 	 7.77582 	 85.2095 	 
H 	 11.4934 	 6.75082 	 85.4608 	 
H 	 12.8731 	 7.82019 	 84.7888 	 
C 	 10.8059 	 8.1756 	 84.1655 	 
H 	 9.79343 	 8.11844 	 84.5936 	 
H 	 10.873 	 7.42387 	 83.4156 	 
C 	 11.0598 	 9.59517 	 83.6054 	 
H 	 10.3112 	 9.92171 	 82.9582 	 
H 	 12.0043 	 9.62275 	 83.0424 	 
H 	 11.1523 	 10.2515 	 84.4982 	 
H 	 17.93 	 9.17811 	 86.2178 	 
H 	 10.4297 	 9.3505 	 89.4396 	 
