34

S 	 -11.2234 	 44.6324 	 40.902 	 
C 	 -12.5683 	 43.7007 	 40.4466 	 
C 	 -12.4097 	 42.35 	 40.6609 	 
C 	 -11.1391 	 42.07 	 41.2877 	 
C 	 -10.3332 	 43.2399 	 41.4245 	 
H 	 -10.7892 	 41.1068 	 41.3962 	 
C 	 -13.3931 	 41.3163 	 40.2727 	 
H 	 -12.9931 	 40.6172 	 39.5756 	 
H 	 -14.0888 	 41.7815 	 39.669 	 
C 	 -14.1936 	 40.7946 	 41.4658 	 
H 	 -13.5061 	 40.3073 	 42.128 	 
H 	 -14.7081 	 41.5928 	 41.9296 	 
C 	 -15.221 	 39.7998 	 40.9096 	 
H 	 -15.9248 	 40.4526 	 40.2834 	 
H 	 -14.7345 	 38.9789 	 40.4291 	 
H 	 -15.8153 	 39.2473 	 41.6219 	 
S 	 -8.74564 	 42.5043 	 43.5674 	 
C 	 -7.05609 	 42.9097 	 43.4335 	 
C 	 -6.78566 	 43.6897 	 42.2829 	 
C 	 -7.89261 	 43.856 	 41.4325 	 
C 	 -9.00298 	 43.2257 	 41.9205 	 
H 	 -5.81974 	 44.0296 	 42.1266 	 
C 	 -7.82281 	 44.4809 	 40.0564 	 
H 	 -7.62082 	 45.552 	 40.2181 	 
H 	 -8.88582 	 44.458 	 39.7081 	 
C 	 -6.86874 	 43.8207 	 39.0766 	 
H 	 -7.31583 	 42.8702 	 38.7498 	 
H 	 -6.06112 	 43.4865 	 39.74 	 
C 	 -6.0879 	 44.7875 	 38.2017 	 
H 	 -5.87514 	 45.7113 	 38.7501 	 
H 	 -6.56066 	 45.0508 	 37.243 	 
H 	 -5.21658 	 44.2121 	 37.9218 	 
H 	 -13.4237 	 44.0236 	 39.9053 	 
H 	 -6.23571 	 42.5994 	 44.2025 	 
