34

S 	 7.82486 	 -13.1265 	 66.2431 	 
C 	 7.95701 	 -14.8006 	 65.8207 	 
C 	 8.8856 	 -15.4706 	 66.6441 	 
C 	 9.54009 	 -14.5995 	 67.5135 	 
C 	 9.27015 	 -13.2377 	 67.2768 	 
H 	 10.2225 	 -14.8995 	 68.3422 	 
C 	 8.96071 	 -17.0496 	 66.769 	 
H 	 8.007 	 -17.48 	 66.3004 	 
H 	 8.89765 	 -17.1754 	 67.8569 	 
C 	 10.1702 	 -17.7265 	 66.2484 	 
H 	 11.0671 	 -17.094 	 66.4197 	 
H 	 10.4873 	 -18.6313 	 66.8534 	 
C 	 10.1966 	 -18.0177 	 64.7128 	 
H 	 9.37479 	 -18.657 	 64.4104 	 
H 	 10.12 	 -17.1047 	 64.1402 	 
H 	 11.1303 	 -18.4974 	 64.4283 	 
S 	 8.54819 	 -10.8394 	 68.5266 	 
C 	 9.83268 	 -9.83605 	 69.1593 	 
C 	 11.0732 	 -10.4215 	 69.0855 	 
C 	 11.0946 	 -11.6647 	 68.3745 	 
C 	 9.7782 	 -12.068 	 67.9761 	 
H 	 11.9439 	 -9.82705 	 69.4794 	 
C 	 12.3938 	 -12.4179 	 68.071 	 
H 	 12.2465 	 -13.4966 	 68.1557 	 
H 	 13.1557 	 -12.1947 	 68.8365 	 
C 	 13.1236 	 -12.1372 	 66.7415 	 
H 	 13.9335 	 -12.8414 	 66.5826 	 
H 	 13.6995 	 -11.2232 	 67.0167 	 
C 	 12.2648 	 -11.8426 	 65.4331 	 
H 	 11.4812 	 -11.1043 	 65.7026 	 
H 	 11.7915 	 -12.6957 	 65.0334 	 
H 	 12.9193 	 -11.4946 	 64.597 	 
H 	 7.26478 	 -15.269 	 65.1575 	 
H 	 9.65849 	 -8.93734 	 69.7181 	 
