34

S 	 57.0407 	 12.2118 	 75.7168 	 
C 	 58.6072 	 12.8169 	 76.4017 	 
C 	 59.1144 	 11.8616 	 77.3216 	 
C 	 58.3468 	 10.6283 	 77.3012 	 
C 	 57.2327 	 10.7135 	 76.5619 	 
H 	 58.5261 	 9.69858 	 77.8023 	 
C 	 60.4596 	 12.0132 	 78.0147 	 
H 	 60.5454 	 11.2437 	 78.7352 	 
H 	 60.386 	 12.9421 	 78.6049 	 
C 	 61.6984 	 12.0159 	 77.1743 	 
H 	 61.8027 	 11.3376 	 76.3604 	 
H 	 61.5629 	 12.9502 	 76.6417 	 
C 	 62.9382 	 11.9563 	 78.1105 	 
H 	 63.072 	 11.032 	 78.5792 	 
H 	 63.8495 	 12.3207 	 77.7582 	 
H 	 62.6499 	 12.6083 	 78.9576 	 
S 	 54.9464 	 9.93424 	 77.8268 	 
C 	 54.1336 	 8.39927 	 77.429 	 
C 	 54.8434 	 7.77794 	 76.4442 	 
C 	 55.937 	 8.56837 	 75.9272 	 
C 	 56.2065 	 9.68509 	 76.6629 	 
H 	 54.6508 	 6.74544 	 76.0894 	 
C 	 56.8996 	 8.19885 	 74.7413 	 
H 	 57.4344 	 9.07007 	 74.3537 	 
H 	 56.3032 	 7.80966 	 73.9527 	 
C 	 57.9289 	 7.18691 	 75.2284 	 
H 	 57.3681 	 6.28457 	 75.4649 	 
H 	 58.4382 	 7.64346 	 76.0747 	 
C 	 58.9984 	 6.81784 	 74.2536 	 
H 	 58.5417 	 6.70605 	 73.2463 	 
H 	 59.4833 	 5.92557 	 74.4644 	 
H 	 59.5855 	 7.66804 	 74.1213 	 
H 	 59.2838 	 13.5537 	 76.0155 	 
H 	 53.2833 	 7.99404 	 77.8577 	 
