34

S 	 -107.58 	 54.1657 	 119.505 	 
C 	 -107.757 	 52.5551 	 120.184 	 
C 	 -106.575 	 51.8496 	 120.144 	 
C 	 -105.63 	 52.5932 	 119.358 	 
C 	 -106.142 	 53.7504 	 118.694 	 
H 	 -104.673 	 52.187 	 119.094 	 
C 	 -106.436 	 50.4741 	 120.592 	 
H 	 -106.572 	 50.3497 	 121.658 	 
H 	 -105.436 	 50.3422 	 120.457 	 
C 	 -107.333 	 49.4184 	 119.935 	 
H 	 -108.25 	 49.4733 	 120.388 	 
H 	 -107.609 	 49.5239 	 118.895 	 
C 	 -106.664 	 48.0311 	 120.269 	 
H 	 -106.287 	 47.8798 	 121.331 	 
H 	 -107.179 	 47.1492 	 119.835 	 
H 	 -105.705 	 48.1182 	 119.724 	 
S 	 -105.793 	 56.2159 	 117.436 	 
C 	 -104.585 	 56.4089 	 116.235 	 
C 	 -103.948 	 55.2087 	 116.017 	 
C 	 -104.313 	 54.1196 	 116.882 	 
C 	 -105.37 	 54.5514 	 117.715 	 
H 	 -103.148 	 55.1735 	 115.339 	 
C 	 -103.617 	 52.8093 	 116.795 	 
H 	 -103.278 	 52.5682 	 115.734 	 
H 	 -104.333 	 51.9525 	 117.061 	 
C 	 -102.338 	 52.731 	 117.721 	 
H 	 -102.045 	 51.6866 	 117.779 	 
H 	 -102.63 	 52.9841 	 118.769 	 
C 	 -101.03 	 53.3553 	 117.203 	 
H 	 -100.271 	 53.166 	 117.983 	 
H 	 -101.067 	 54.4684 	 117.103 	 
H 	 -100.676 	 52.9085 	 116.297 	 
H 	 -108.634 	 52.3126 	 120.789 	 
H 	 -104.174 	 57.3643 	 115.903 	 
