34

S 	 60.7316 	 5.53562 	 77.7077 	 
C 	 60.9672 	 6.73291 	 78.934 	 
C 	 60.51 	 7.93889 	 78.4934 	 
C 	 60.0175 	 7.88659 	 77.1189 	 
C 	 60.1463 	 6.62983 	 76.5353 	 
H 	 59.5923 	 8.67252 	 76.5139 	 
C 	 60.307 	 9.17378 	 79.2537 	 
H 	 60.5967 	 10.062 	 78.6346 	 
H 	 61.0687 	 9.08943 	 80.0206 	 
C 	 58.9258 	 9.36539 	 79.8675 	 
H 	 58.2954 	 9.68061 	 79.0287 	 
H 	 58.6616 	 8.39349 	 80.3009 	 
C 	 58.9524 	 10.3917 	 81.0624 	 
H 	 59.3527 	 11.3008 	 80.7395 	 
H 	 57.9945 	 10.5367 	 81.575 	 
H 	 59.6731 	 9.9312 	 81.6919 	 
S 	 58.3219 	 5.15387 	 75.0918 	 
C 	 58.5491 	 5.18479 	 73.3625 	 
C 	 59.6306 	 5.9489 	 72.9002 	 
C 	 60.2386 	 6.59216 	 73.9871 	 
C 	 59.7234 	 6.19759 	 75.2534 	 
H 	 59.825 	 6.22099 	 71.8367 	 
C 	 61.3584 	 7.61379 	 73.7861 	 
H 	 61.151 	 8.51619 	 74.304 	 
H 	 61.6276 	 7.73728 	 72.6934 	 
C 	 62.7214 	 7.00754 	 74.1789 	 
H 	 62.9638 	 6.20179 	 73.5912 	 
H 	 62.6892 	 6.56917 	 75.2111 	 
C 	 63.8611 	 8.06042 	 74.1556 	 
H 	 63.6557 	 8.87254 	 74.8609 	 
H 	 63.9703 	 8.48998 	 73.1332 	 
H 	 64.8183 	 7.59604 	 74.3572 	 
H 	 61.5001 	 6.47387 	 79.8313 	 
H 	 57.758 	 4.71843 	 72.7479 	 
