34

S 	 -80.2153 	 43.1503 	 128.605 	 
C 	 -81.7553 	 43.1075 	 127.846 	 
C 	 -82.2428 	 44.4068 	 127.647 	 
C 	 -81.4703 	 45.381 	 128.363 	 
C 	 -80.3991 	 44.8782 	 128.998 	 
H 	 -81.6527 	 46.4527 	 128.53 	 
C 	 -83.5297 	 44.7849 	 126.862 	 
H 	 -83.206 	 44.9795 	 125.843 	 
H 	 -83.8498 	 45.7823 	 127.217 	 
C 	 -84.5613 	 43.7296 	 126.794 	 
H 	 -84.0152 	 42.9359 	 126.252 	 
H 	 -84.838 	 43.3304 	 127.755 	 
C 	 -85.8286 	 44.0343 	 126.032 	 
H 	 -86.4812 	 44.579 	 126.694 	 
H 	 -85.604 	 44.6703 	 125.13 	 
H 	 -86.3469 	 43.193 	 125.719 	 
S 	 -77.9013 	 46.2145 	 129.237 	 
C 	 -77.5608 	 47.1892 	 130.685 	 
C 	 -78.4303 	 46.9262 	 131.68 	 
C 	 -79.5139 	 46.0606 	 131.257 	 
C 	 -79.447 	 45.6348 	 129.885 	 
H 	 -78.2472 	 47.3654 	 132.574 	 
C 	 -80.6473 	 45.5836 	 132.168 	 
H 	 -81.6178 	 45.6863 	 131.638 	 
H 	 -80.9064 	 46.2656 	 132.95 	 
C 	 -80.5788 	 44.1366 	 132.718 	 
H 	 -79.5353 	 43.9566 	 133.065 	 
H 	 -80.5611 	 43.4212 	 131.923 	 
C 	 -81.6288 	 43.9063 	 133.817 	 
H 	 -81.4026 	 44.6008 	 134.666 	 
H 	 -81.8652 	 42.8632 	 134.227 	 
H 	 -82.5548 	 44.2035 	 133.359 	 
H 	 -82.0021 	 42.299 	 127.159 	 
H 	 -76.6309 	 47.75 	 130.741 	 
