34

S 	 31.5282 	 14.8771 	 71.1754 	 
C 	 30.1836 	 15.2331 	 72.159 	 
C 	 30.5535 	 15.5914 	 73.4657 	 
C 	 31.9861 	 15.7825 	 73.5807 	 
C 	 32.6895 	 15.3732 	 72.43 	 
H 	 32.5155 	 16.1349 	 74.4622 	 
C 	 29.6015 	 15.851 	 74.596 	 
H 	 30.1031 	 16.0169 	 75.5232 	 
H 	 29.0597 	 14.9252 	 74.7151 	 
C 	 28.5611 	 16.9067 	 74.3065 	 
H 	 28.9857 	 17.8928 	 74.6236 	 
H 	 28.4409 	 17.0792 	 73.2471 	 
C 	 27.2574 	 16.597 	 75.127 	 
H 	 27.4931 	 16.3417 	 76.1751 	 
H 	 26.6823 	 17.5171 	 75.1447 	 
H 	 26.6291 	 15.8433 	 74.7411 	 
S 	 35.0646 	 16.4958 	 71.7 	 
C 	 36.4482 	 15.5383 	 71.7961 	 
C 	 36.29 	 14.4262 	 72.6479 	 
C 	 34.9899 	 14.3102 	 73.1255 	 
C 	 34.1475 	 15.247 	 72.4803 	 
H 	 37.1205 	 13.7589 	 72.805 	 
C 	 34.5471 	 13.1271 	 73.9725 	 
H 	 33.6499 	 13.3944 	 74.4908 	 
H 	 35.3342 	 13.1083 	 74.7524 	 
C 	 34.3508 	 11.8531 	 73.2674 	 
H 	 35.3629 	 11.6383 	 72.9069 	 
H 	 33.6479 	 12.0661 	 72.4026 	 
C 	 33.7489 	 10.7665 	 74.1354 	 
H 	 32.8784 	 11.1621 	 74.6816 	 
H 	 34.4943 	 10.3932 	 74.8899 	 
H 	 33.5518 	 9.9283 	 73.4896 	 
H 	 29.1328 	 15.0571 	 71.8914 	 
H 	 37.3762 	 15.7411 	 71.2932 	 
