34

S 	 4.51474 	 -2.19797 	 79.1279 	 
C 	 5.45869 	 -1.16946 	 80.2014 	 
C 	 5.99968 	 -1.94502 	 81.2248 	 
C 	 5.73985 	 -3.32993 	 81.0144 	 
C 	 4.87288 	 -3.6366 	 79.979 	 
H 	 6.04687 	 -4.15492 	 81.601 	 
C 	 6.59013 	 -1.36209 	 82.5003 	 
H 	 6.95201 	 -0.282331 	 82.3921 	 
H 	 7.55286 	 -1.91273 	 82.7398 	 
C 	 5.59431 	 -1.18328 	 83.6808 	 
H 	 6.23457 	 -0.886781 	 84.5504 	 
H 	 4.88076 	 -0.411384 	 83.3491 	 
C 	 4.99829 	 -2.54811 	 84.1025 	 
H 	 5.64548 	 -3.3751 	 84.1497 	 
H 	 4.61223 	 -2.48957 	 85.0512 	 
H 	 4.27235 	 -2.83574 	 83.3244 	 
S 	 4.02054 	 -5.3561 	 77.9036 	 
C 	 3.3879 	 -6.97206 	 78.3256 	 
C 	 3.40958 	 -7.12205 	 79.7047 	 
C 	 3.80169 	 -5.9762 	 80.4644 	 
C 	 4.28298 	 -4.95545 	 79.647 	 
H 	 3.09878 	 -8.01558 	 80.1445 	 
C 	 3.79441 	 -6.07635 	 81.9148 	 
H 	 2.86906 	 -6.60563 	 82.0688 	 
H 	 3.8193 	 -5.11243 	 82.4222 	 
C 	 4.97919 	 -7.00207 	 82.3776 	 
H 	 5.90989 	 -6.55017 	 82.1925 	 
H 	 4.95497 	 -7.89142 	 81.7583 	 
C 	 4.96076 	 -7.40022 	 83.8741 	 
H 	 5.52072 	 -8.35828 	 83.8883 	 
H 	 4.0165 	 -7.61502 	 84.2994 	 
H 	 5.46349 	 -6.67128 	 84.452 	 
H 	 5.29952 	 -0.112886 	 80.2831 	 
H 	 2.9781 	 -7.71298 	 77.708 	 
