34

S 	 17.7357 	 31.3932 	 57.593 	 
C 	 16.9396 	 30.3114 	 58.5684 	 
C 	 15.6825 	 30.6765 	 59.0114 	 
C 	 15.3918 	 31.9972 	 58.5339 	 
C 	 16.4004 	 32.4994 	 57.7683 	 
H 	 14.5131 	 32.5117 	 58.7319 	 
C 	 14.7701 	 29.8679 	 59.9292 	 
H 	 15.4169 	 29.2453 	 60.5203 	 
H 	 14.1887 	 29.1731 	 59.2829 	 
C 	 13.7029 	 30.605 	 60.7853 	 
H 	 14.2054 	 31.4166 	 61.356 	 
H 	 12.9079 	 31.0076 	 60.1262 	 
C 	 12.9938 	 29.7236 	 61.7537 	 
H 	 12.3267 	 30.3604 	 62.3162 	 
H 	 12.409 	 28.9395 	 61.3261 	 
H 	 13.6606 	 29.1917 	 62.4315 	 
S 	 15.3294 	 34.0612 	 55.7831 	 
C 	 15.9553 	 35.6909 	 55.4797 	 
C 	 16.9123 	 36.0143 	 56.4257 	 
C 	 16.9629 	 35.0823 	 57.554 	 
C 	 16.3253 	 33.832 	 57.2109 	 
H 	 17.3219 	 37.0153 	 56.3317 	 
C 	 17.7295 	 35.2932 	 58.8051 	 
H 	 18.3878 	 36.1083 	 58.6204 	 
H 	 18.4013 	 34.4146 	 58.9736 	 
C 	 16.8684 	 35.5143 	 60.0261 	 
H 	 17.4802 	 35.7083 	 60.9503 	 
H 	 16.2641 	 34.6841 	 60.1485 	 
C 	 16.0668 	 36.8379 	 60.0631 	 
H 	 16.7609 	 37.6691 	 59.8936 	 
H 	 15.6377 	 37.0062 	 61.04 	 
H 	 15.3095 	 36.8372 	 59.3105 	 
H 	 17.1795 	 29.2605 	 58.7009 	 
H 	 15.7854 	 36.2723 	 54.5738 	 
