34

S 	 57.2748 	 12.1318 	 50.7234 	 
C 	 57.3395 	 13.2609 	 49.3905 	 
C 	 56.1342 	 13.8715 	 49.1625 	 
C 	 55.2245 	 13.6262 	 50.2218 	 
C 	 55.7307 	 12.8315 	 51.2669 	 
H 	 54.191 	 14.0671 	 50.3323 	 
C 	 55.8361 	 14.7331 	 47.9842 	 
H 	 56.2579 	 14.2297 	 47.132 	 
H 	 56.3852 	 15.7098 	 48.1465 	 
C 	 54.2913 	 15.0254 	 47.5575 	 
H 	 53.8677 	 15.4499 	 48.4516 	 
H 	 54.3118 	 15.8939 	 46.8467 	 
C 	 53.4642 	 13.7958 	 47.0458 	 
H 	 54.0785 	 13.044 	 46.538 	 
H 	 53.1686 	 13.3461 	 47.9662 	 
H 	 52.498 	 14.0716 	 46.6387 	 
S 	 55.7702 	 11.2354 	 53.5911 	 
C 	 54.4331 	 11.3203 	 54.7556 	 
C 	 53.5541 	 12.2774 	 54.3808 	 
C 	 53.9379 	 12.9498 	 53.1406 	 
C 	 55.1513 	 12.5063 	 52.5477 	 
H 	 52.6695 	 12.4541 	 55.0088 	 
C 	 53.0268 	 14.0473 	 52.6537 	 
H 	 53.5425 	 14.8473 	 52.0503 	 
H 	 52.6766 	 14.5127 	 53.5611 	 
C 	 51.938 	 13.5746 	 51.7336 	 
H 	 51.2336 	 12.9124 	 52.226 	 
H 	 52.3851 	 12.9722 	 50.9571 	 
C 	 51.1154 	 14.7172 	 51.0883 	 
H 	 50.1384 	 14.3149 	 50.7201 	 
H 	 51.6451 	 15.0204 	 50.1607 	 
H 	 51.1256 	 15.5867 	 51.7145 	 
H 	 58.1242 	 13.3571 	 48.7202 	 
H 	 54.4683 	 10.7437 	 55.627 	 
