34

S 	 -8.86382 	 44.0631 	 37.5923 	 
C 	 -7.36573 	 44.3451 	 36.7211 	 
C 	 -6.24051 	 44.121 	 37.4924 	 
C 	 -6.67304 	 43.9608 	 38.8445 	 
C 	 -8.01612 	 44.0572 	 39.0788 	 
H 	 -5.95928 	 43.6569 	 39.5701 	 
C 	 -4.82114 	 44.0782 	 37.0109 	 
H 	 -4.50565 	 43.0159 	 37.0708 	 
H 	 -4.24174 	 44.565 	 37.7657 	 
C 	 -4.53246 	 44.6774 	 35.6174 	 
H 	 -3.52132 	 44.4044 	 35.2633 	 
H 	 -5.18663 	 44.2838 	 34.8755 	 
C 	 -4.64701 	 46.192 	 35.4426 	 
H 	 -4.16103 	 46.4948 	 34.525 	 
H 	 -5.68379 	 46.4625 	 35.3213 	 
H 	 -4.24369 	 46.8078 	 36.2667 	 
S 	 -10.4431 	 43.9568 	 40.3527 	 
C 	 -10.5418 	 43.7083 	 42.1455 	 
C 	 -9.27485 	 43.795 	 42.6885 	 
C 	 -8.24341 	 43.8081 	 41.6983 	 
C 	 -8.69219 	 44.0039 	 40.4032 	 
H 	 -9.09291 	 43.8134 	 43.815 	 
C 	 -6.82767 	 43.7042 	 42.1336 	 
H 	 -6.70569 	 44.2646 	 43.0397 	 
H 	 -6.19422 	 44.2271 	 41.4647 	 
C 	 -6.41077 	 42.3049 	 42.3473 	 
H 	 -6.68248 	 41.7537 	 41.4481 	 
H 	 -7.13032 	 41.8513 	 43.0859 	 
C 	 -4.99019 	 42.1631 	 42.7971 	 
H 	 -4.8745 	 42.8215 	 43.6832 	 
H 	 -4.28249 	 42.4354 	 42.0745 	 
H 	 -4.90553 	 41.1784 	 43.0753 	 
H 	 -7.35738 	 44.5952 	 35.6449 	 
H 	 -11.4299 	 43.5192 	 42.703 	 
