34

S 	 8.0717 	 23.5134 	 67.023 	 
C 	 6.89846 	 22.7487 	 66.0651 	 
C 	 6.39713 	 23.649 	 65.0984 	 
C 	 7.00396 	 24.9257 	 65.2106 	 
C 	 7.92882 	 25.0576 	 66.2542 	 
H 	 6.72684 	 25.7919 	 64.6381 	 
C 	 5.37465 	 23.2862 	 64.1064 	 
H 	 5.79687 	 22.5442 	 63.3809 	 
H 	 5.1673 	 24.0192 	 63.3223 	 
C 	 4.05815 	 22.7148 	 64.6679 	 
H 	 3.49743 	 22.2657 	 63.8672 	 
H 	 4.35725 	 21.8987 	 65.3544 	 
C 	 3.28718 	 23.7877 	 65.5022 	 
H 	 2.38781 	 23.2794 	 65.8557 	 
H 	 3.88485 	 24.2317 	 66.3047 	 
H 	 2.87071 	 24.6606 	 64.9618 	 
S 	 8.92129 	 27.4073 	 65.3796 	 
C 	 9.64229 	 28.5612 	 66.5076 	 
C 	 9.72568 	 28.1009 	 67.7821 	 
C 	 9.04455 	 26.8235 	 67.8845 	 
C 	 8.54426 	 26.3333 	 66.688 	 
H 	 10.2229 	 28.6527 	 68.5606 	 
C 	 9.04864 	 25.9838 	 69.1553 	 
H 	 9.85713 	 25.3287 	 69.1182 	 
H 	 8.08261 	 25.4746 	 69.3257 	 
C 	 9.3009 	 26.8418 	 70.3444 	 
H 	 8.63363 	 27.6282 	 70.3865 	 
H 	 10.2381 	 27.3133 	 70.3323 	 
C 	 9.08247 	 26.0795 	 71.7171 	 
H 	 9.67454 	 25.1811 	 71.6187 	 
H 	 8.12518 	 25.6201 	 71.8537 	 
H 	 9.34206 	 26.652 	 72.6696 	 
H 	 6.58673 	 21.7075 	 66.1043 	 
H 	 10.1292 	 29.4387 	 66.1774 	 
