34

S 	 -2.769 	 28.941 	 40.944 	 
C 	 -1.54286 	 27.7087 	 40.8546 	 
C 	 -0.284563 	 28.1313 	 41.1304 	 
C 	 -0.300252 	 29.4742 	 41.5525 	 
C 	 -1.60201 	 29.9832 	 41.6478 	 
H 	 0.512027 	 30.0406 	 41.977 	 
C 	 0.968628 	 27.3735 	 41.186 	 
H 	 1.20553 	 27.2478 	 42.2301 	 
H 	 1.75109 	 28.0174 	 40.7699 	 
C 	 0.921068 	 25.989 	 40.5656 	 
H 	 0.179216 	 25.4333 	 41.063 	 
H 	 0.567835 	 26.1059 	 39.5777 	 
C 	 2.29437 	 25.2319 	 40.6256 	 
H 	 3.04875 	 25.6886 	 41.2779 	 
H 	 2.09595 	 24.2494 	 41.1662 	 
H 	 2.70306 	 25.0912 	 39.5901 	 
S 	 -2.59957 	 31.2538 	 43.8431 	 
C 	 -2.36854 	 32.8973 	 44.037 	 
C 	 -1.7906 	 33.5041 	 42.9275 	 
C 	 -1.53852 	 32.5551 	 41.845 	 
C 	 -1.93676 	 31.258 	 42.1944 	 
H 	 -1.37701 	 34.5444 	 42.8552 	 
C 	 -0.780403 	 32.9189 	 40.6302 	 
H 	 -0.431021 	 31.9591 	 40.1816 	 
H 	 0.0696151 	 33.5567 	 40.9124 	 
C 	 -1.63913 	 33.5654 	 39.5106 	 
H 	 -2.00479 	 34.5173 	 39.9107 	 
H 	 -2.61598 	 33.0757 	 39.2867 	 
C 	 -0.799823 	 33.839 	 38.2332 	 
H 	 -1.37821 	 34.3568 	 37.465 	 
H 	 -0.477889 	 32.9314 	 37.8405 	 
H 	 0.0886262 	 34.4476 	 38.3756 	 
H 	 -1.82644 	 26.6867 	 40.5246 	 
H 	 -2.55292 	 33.3917 	 45.0317 	 
