34

S 	 -45.1557 	 66.5932 	 126.482 	 
C 	 -46.1453 	 65.3335 	 125.953 	 
C 	 -46.3808 	 64.4851 	 127.018 	 
C 	 -46.0332 	 65.0398 	 128.243 	 
C 	 -45.4591 	 66.3046 	 128.153 	 
H 	 -46.0728 	 64.5028 	 129.245 	 
C 	 -46.8818 	 63.0397 	 126.932 	 
H 	 -47.4209 	 62.8651 	 125.985 	 
H 	 -47.7085 	 62.9156 	 127.643 	 
C 	 -45.7693 	 62.0654 	 127.034 	 
H 	 -45.0306 	 62.1803 	 126.235 	 
H 	 -45.2002 	 62.1583 	 127.945 	 
C 	 -46.2459 	 60.6229 	 127.061 	 
H 	 -46.9775 	 60.332 	 126.343 	 
H 	 -45.4119 	 59.8734 	 126.9 	 
H 	 -46.5233 	 60.2486 	 128.052 	 
S 	 -43.3437 	 67.6182 	 129.336 	 
C 	 -43.5786 	 68.6154 	 130.728 	 
C 	 -44.8259 	 68.4014 	 131.304 	 
C 	 -45.6624 	 67.5634 	 130.484 	 
C 	 -45.0006 	 67.1242 	 129.3 	 
H 	 -45.0877 	 68.9433 	 132.172 	 
C 	 -47.1345 	 67.4026 	 130.806 	 
H 	 -47.672 	 67.4503 	 129.869 	 
H 	 -47.4823 	 68.3162 	 131.326 	 
C 	 -47.557 	 66.196 	 131.686 	 
H 	 -47.1343 	 66.2376 	 132.646 	 
H 	 -47.106 	 65.3208 	 131.241 	 
C 	 -49.11 	 66.159 	 131.796 	 
H 	 -49.6003 	 66.2129 	 130.768 	 
H 	 -49.4401 	 66.9909 	 132.432 	 
H 	 -49.4535 	 65.3139 	 132.34 	 
H 	 -46.0895 	 65.0754 	 124.86 	 
H 	 -42.7851 	 69.3608 	 131.05 	 
