34

S 	 -37.9793 	 29.2969 	 92.0394 	 
C 	 -38.1943 	 27.8329 	 93.0072 	 
C 	 -39.363 	 27.1823 	 92.7506 	 
C 	 -40.0946 	 27.9119 	 91.7616 	 
C 	 -39.4774 	 29.0521 	 91.3387 	 
H 	 -41.1408 	 27.8764 	 91.3925 	 
C 	 -39.8224 	 25.8883 	 93.3123 	 
H 	 -38.9138 	 25.2159 	 93.3138 	 
H 	 -40.5989 	 25.4396 	 92.7049 	 
C 	 -40.5234 	 26.0031 	 94.7247 	 
H 	 -40.8617 	 25.079 	 95.1514 	 
H 	 -39.8209 	 26.398 	 95.3625 	 
C 	 -41.7317 	 26.9173 	 94.7221 	 
H 	 -41.5783 	 27.9268 	 94.3213 	 
H 	 -42.5986 	 26.5955 	 94.1333 	 
H 	 -42.2088 	 26.9933 	 95.7353 	 
S 	 -40.4355 	 31.5355 	 90.8849 	 
C 	 -41.558 	 31.7723 	 89.6059 	 
C 	 -41.2926 	 30.7775 	 88.6286 	 
C 	 -40.7078 	 29.612 	 89.1762 	 
C 	 -40.0529 	 29.8952 	 90.3481 	 
H 	 -41.7704 	 30.9081 	 87.6859 	 
C 	 -40.622 	 28.2828 	 88.4144 	 
H 	 -41.0145 	 28.3743 	 87.3773 	 
H 	 -41.3409 	 27.6469 	 88.8513 	 
C 	 -39.3486 	 27.4694 	 88.3939 	 
H 	 -39.5025 	 26.5637 	 87.7995 	 
H 	 -39.1532 	 27.0631 	 89.4057 	 
C 	 -38.1381 	 28.2476 	 87.7802 	 
H 	 -37.4826 	 27.5788 	 87.2266 	 
H 	 -37.658 	 28.9022 	 88.517 	 
H 	 -38.4529 	 28.9018 	 87.0023 	 
H 	 -37.4562 	 27.4139 	 93.6967 	 
H 	 -41.9417 	 32.6584 	 89.3 	 
