34

S 	 0.857396 	 -13.6384 	 58.2987 	 
C 	 1.71252 	 -12.365 	 59.0932 	 
C 	 2.70093 	 -12.8857 	 59.9693 	 
C 	 2.92077 	 -14.2663 	 59.8064 	 
C 	 2.10719 	 -14.8127 	 58.8218 	 
H 	 3.69007 	 -14.8169 	 60.2791 	 
C 	 3.48366 	 -12.0688 	 61.0037 	 
H 	 3.29807 	 -10.9697 	 60.7268 	 
H 	 4.59019 	 -12.2592 	 60.8224 	 
C 	 2.94679 	 -12.3006 	 62.4628 	 
H 	 1.90746 	 -11.8835 	 62.3903 	 
H 	 2.68912 	 -13.3096 	 62.6369 	 
C 	 3.66061 	 -11.7457 	 63.7426 	 
H 	 3.45383 	 -10.6729 	 63.7832 	 
H 	 3.24147 	 -12.2913 	 64.6096 	 
H 	 4.76346 	 -11.909 	 63.7215 	 
S 	 1.91375 	 -16.4463 	 56.6367 	 
C 	 2.01328 	 -18.2028 	 56.8481 	 
C 	 2.00261 	 -18.5265 	 58.1826 	 
C 	 2.01874 	 -17.4111 	 59.0602 	 
C 	 1.94838 	 -16.2145 	 58.3826 	 
H 	 2.13728 	 -19.5682 	 58.4647 	 
C 	 2.19447 	 -17.609 	 60.5339 	 
H 	 3.1198 	 -17.2084 	 60.8359 	 
H 	 2.45055 	 -18.6156 	 60.8673 	 
C 	 1.12631 	 -16.9799 	 61.5693 	 
H 	 0.109834 	 -17.4626 	 61.355 	 
H 	 0.963881 	 -15.964 	 61.1904 	 
C 	 1.58622 	 -17.1168 	 63.021 	 
H 	 1.661 	 -18.1663 	 63.2265 	 
H 	 0.872078 	 -16.6307 	 63.7154 	 
H 	 2.61133 	 -16.6959 	 63.2621 	 
H 	 1.54929 	 -11.2983 	 58.8998 	 
H 	 2.04705 	 -18.9856 	 56.1038 	 
