34

S 	 0.584443 	 -26.8655 	 66.2957 	 
C 	 -1.04062 	 -26.5024 	 66.0048 	 
C 	 -1.3855 	 -26.2841 	 64.6969 	 
C 	 -0.258876 	 -26.6513 	 63.8955 	 
C 	 0.896684 	 -26.8987 	 64.5651 	 
H 	 -0.280532 	 -26.7259 	 62.842 	 
C 	 -2.70554 	 -25.841 	 64.112 	 
H 	 -3.47836 	 -26.2969 	 64.7394 	 
H 	 -2.84272 	 -26.2717 	 63.0928 	 
C 	 -2.69514 	 -24.3215 	 63.8522 	 
H 	 -1.70224 	 -23.8931 	 63.5622 	 
H 	 -3.24374 	 -24.1393 	 62.903 	 
C 	 -3.2409 	 -23.4462 	 65.0172 	 
H 	 -4.00994 	 -24.0189 	 65.6272 	 
H 	 -2.60196 	 -23.3282 	 65.8584 	 
H 	 -3.75391 	 -22.5334 	 64.6958 	 
S 	 3.19622 	 -28.4347 	 64.5282 	 
C 	 4.376 	 -28.184 	 63.3637 	 
C 	 4.01548 	 -27.1245 	 62.5871 	 
C 	 2.83376 	 -26.4439 	 62.8911 	 
C 	 2.218 	 -27.0461 	 63.9529 	 
H 	 4.59922 	 -26.8907 	 61.7061 	 
C 	 2.40787 	 -25.2418 	 62.0709 	 
H 	 1.37869 	 -25.2595 	 61.8562 	 
H 	 2.9123 	 -25.4687 	 61.129 	 
C 	 2.7148 	 -23.7838 	 62.5027 	 
H 	 2.7991 	 -23.1734 	 61.6243 	 
H 	 3.71225 	 -23.7116 	 62.913 	 
C 	 1.54754 	 -23.1963 	 63.3721 	 
H 	 0.799261 	 -22.8966 	 62.6356 	 
H 	 1.80371 	 -22.2117 	 63.908 	 
H 	 1.16543 	 -23.983 	 64.0151 	 
H 	 -1.80818 	 -26.3104 	 66.8291 	 
H 	 5.2688 	 -28.7057 	 63.1295 	 
