34

S 	 -30.5524 	 75.5331 	 161.802 	 
C 	 -29.3117 	 74.6287 	 160.914 	 
C 	 -29.8221 	 73.7222 	 159.992 	 
C 	 -31.2658 	 73.7608 	 159.971 	 
C 	 -31.8395 	 74.5979 	 160.951 	 
H 	 -31.8905 	 73.1845 	 159.3 	 
C 	 -28.9338 	 72.9698 	 158.995 	 
H 	 -29.4787 	 72.1331 	 158.483 	 
H 	 -28.0356 	 72.5434 	 159.539 	 
C 	 -28.4574 	 73.8357 	 157.906 	 
H 	 -29.3501 	 74.3219 	 157.579 	 
H 	 -27.7709 	 74.5388 	 158.346 	 
C 	 -27.8625 	 73.0597 	 156.655 	 
H 	 -27.484 	 73.7732 	 155.897 	 
H 	 -27.0589 	 72.3528 	 156.828 	 
H 	 -28.7138 	 72.6599 	 156.094 	 
S 	 -33.9317 	 76.3826 	 161.15 	 
C 	 -35.506 	 75.7702 	 161.575 	 
C 	 -35.5145 	 74.4301 	 161.728 	 
C 	 -34.2293 	 73.8702 	 161.522 	 
C 	 -33.2616 	 74.7639 	 161.192 	 
H 	 -36.4568 	 73.9768 	 161.911 	 
C 	 -33.9906 	 72.3267 	 161.539 	 
H 	 -33.183 	 72.1076 	 162.27 	 
H 	 -33.7555 	 72.0248 	 160.532 	 
C 	 -35.1028 	 71.4159 	 161.98 	 
H 	 -34.8 	 70.4114 	 161.728 	 
H 	 -36.0086 	 71.7323 	 161.418 	 
C 	 -35.5659 	 71.5175 	 163.46 	 
H 	 -36.3083 	 70.692 	 163.614 	 
H 	 -36.1093 	 72.401 	 163.836 	 
H 	 -34.7848 	 71.3823 	 164.216 	 
H 	 -28.2586 	 74.7049 	 161.138 	 
H 	 -36.3599 	 76.4646 	 161.706 	 
