34

S 	 -41.7702 	 24.5911 	 79.4436 	 
C 	 -41.2592 	 26.1801 	 79.8898 	 
C 	 -39.9918 	 26.5153 	 79.3223 	 
C 	 -39.4978 	 25.4392 	 78.547 	 
C 	 -40.4001 	 24.3426 	 78.513 	 
H 	 -38.5665 	 25.4313 	 77.9773 	 
C 	 -39.2757 	 27.835 	 79.5655 	 
H 	 -39.9781 	 28.5498 	 79.2357 	 
H 	 -38.4213 	 27.7845 	 78.7788 	 
C 	 -38.831 	 28.0792 	 81.0185 	 
H 	 -39.7733 	 28.2256 	 81.594 	 
H 	 -38.3487 	 27.1611 	 81.4386 	 
C 	 -37.8945 	 29.2518 	 81.1981 	 
H 	 -37.474 	 29.4293 	 82.2243 	 
H 	 -37.0106 	 29.1583 	 80.5428 	 
H 	 -38.4317 	 30.1701 	 80.9723 	 
S 	 -39.8775 	 21.5704 	 78.7602 	 
C 	 -40.1337 	 20.613 	 77.3385 	 
C 	 -40.0328 	 21.3823 	 76.26 	 
C 	 -40.2167 	 22.7933 	 76.5241 	 
C 	 -40.2203 	 23.0337 	 77.8548 	 
H 	 -39.9083 	 20.9899 	 75.2822 	 
C 	 -40.4263 	 23.7974 	 75.5208 	 
H 	 -39.8525 	 23.6428 	 74.6199 	 
H 	 -40.0095 	 24.7325 	 75.8492 	 
C 	 -41.8898 	 23.8305 	 75.0055 	 
H 	 -42.1617 	 22.7831 	 74.6162 	 
H 	 -42.0228 	 24.452 	 74.171 	 
C 	 -42.8755 	 24.202 	 76.1293 	 
H 	 -42.5314 	 25.0436 	 76.6603 	 
H 	 -43.0007 	 23.3101 	 76.8126 	 
H 	 -43.8285 	 24.4264 	 75.7102 	 
H 	 -41.7533 	 27.0131 	 80.3862 	 
H 	 -39.9743 	 19.5943 	 77.3353 	 
