34

S 	 -4.7446 	 -7.89337 	 82.3817 	 
C 	 -5.87091 	 -8.65449 	 81.2671 	 
C 	 -7.0923 	 -8.03246 	 81.2579 	 
C 	 -7.17651 	 -6.95258 	 82.2679 	 
C 	 -6.09464 	 -6.84796 	 83.0671 	 
H 	 -8.0544 	 -6.33386 	 82.5199 	 
C 	 -8.36211 	 -8.47787 	 80.5723 	 
H 	 -8.95603 	 -7.62275 	 80.2224 	 
H 	 -8.95041 	 -8.97718 	 81.3583 	 
C 	 -8.23369 	 -9.48294 	 79.4141 	 
H 	 -7.42092 	 -9.13014 	 78.8061 	 
H 	 -8.16129 	 -10.4887 	 79.8259 	 
C 	 -9.48384 	 -9.35936 	 78.5295 	 
H 	 -10.4284 	 -9.72156 	 78.8855 	 
H 	 -9.60129 	 -8.41771 	 78.1037 	 
H 	 -9.38526 	 -9.98038 	 77.6624 	 
S 	 -5.26339 	 -6.55319 	 85.6325 	 
C 	 -5.35179 	 -5.05693 	 86.4918 	 
C 	 -6.03271 	 -4.13521 	 85.6958 	 
C 	 -6.43325 	 -4.61564 	 84.4003 	 
C 	 -5.97061 	 -5.90715 	 84.2026 	 
H 	 -6.37288 	 -3.13743 	 86.0761 	 
C 	 -7.00147 	 -3.68955 	 83.3603 	 
H 	 -7.33853 	 -4.40336 	 82.55 	 
H 	 -6.22534 	 -2.97304 	 83.0229 	 
C 	 -8.24573 	 -2.9367 	 83.8588 	 
H 	 -8.03058 	 -2.21563 	 84.6906 	 
H 	 -9.00327 	 -3.64095 	 84.1458 	 
C 	 -8.89261 	 -2.15435 	 82.6413 	 
H 	 -8.18542 	 -1.37748 	 82.4071 	 
H 	 -9.77791 	 -1.76982 	 83.091 	 
H 	 -9.06934 	 -2.79829 	 81.7148 	 
H 	 -5.62056 	 -9.47225 	 80.6344 	 
H 	 -4.95572 	 -4.89478 	 87.5109 	 
