34

S 	 51.5851 	 0.0978482 	 84.0055 	 
C 	 50.1257 	 -0.369937 	 84.8225 	 
C 	 49.6179 	 -1.61772 	 84.4366 	 
C 	 50.4491 	 -2.18948 	 83.3886 	 
C 	 51.4618 	 -1.33655 	 82.9794 	 
H 	 50.5201 	 -3.18689 	 82.881 	 
C 	 48.4952 	 -2.32968 	 85.052 	 
H 	 47.6218 	 -1.68137 	 84.8426 	 
H 	 48.7592 	 -2.40774 	 86.1299 	 
C 	 48.1241 	 -3.80568 	 84.6471 	 
H 	 47.7819 	 -3.91801 	 83.6071 	 
H 	 48.9098 	 -4.4632 	 84.9162 	 
C 	 46.9279 	 -4.28134 	 85.5186 	 
H 	 46.0615 	 -3.52909 	 85.4796 	 
H 	 46.4749 	 -5.18989 	 85.1646 	 
H 	 47.1747 	 -4.36643 	 86.5899 	 
S 	 54.1073 	 -2.02615 	 82.6471 	 
C 	 54.5776 	 -2.84009 	 81.1455 	 
C 	 53.642 	 -2.5311 	 80.1543 	 
C 	 52.4531 	 -1.96993 	 80.6695 	 
C 	 52.5205 	 -1.74072 	 82.0357 	 
H 	 53.8605 	 -2.88591 	 79.1704 	 
C 	 51.1903 	 -1.95068 	 79.825 	 
H 	 50.3289 	 -2.20938 	 80.4136 	 
H 	 51.2187 	 -2.72397 	 78.9768 	 
C 	 50.9039 	 -0.579746 	 79.1976 	 
H 	 51.7857 	 -0.149002 	 78.7949 	 
H 	 50.5978 	 0.029141 	 79.962 	 
C 	 49.7683 	 -0.698162 	 78.1696 	 
H 	 48.7985 	 -1.06604 	 78.514 	 
H 	 49.9894 	 -1.38859 	 77.2663 	 
H 	 49.5352 	 0.270141 	 77.6776 	 
H 	 49.6366 	 0.104028 	 85.7246 	 
H 	 55.5346 	 -3.25723 	 80.8661 	 
