34

S 	 -71.0539 	 37.8725 	 131.687 	 
C 	 -70.3549 	 38.5679 	 130.229 	 
C 	 -69.0795 	 39.0112 	 130.51 	 
C 	 -68.5689 	 38.4955 	 131.736 	 
C 	 -69.4645 	 37.7324 	 132.441 	 
H 	 -67.5821 	 38.6622 	 132.105 	 
C 	 -68.2009 	 39.6876 	 129.508 	 
H 	 -68.717 	 39.5883 	 128.542 	 
H 	 -67.2916 	 39.0658 	 129.37 	 
C 	 -67.9446 	 41.2577 	 129.749 	 
H 	 -67.6442 	 41.6162 	 128.793 	 
H 	 -68.8791 	 41.7857 	 129.884 	 
C 	 -66.9376 	 41.669 	 130.853 	 
H 	 -66.0362 	 41.0713 	 131.082 	 
H 	 -66.6078 	 42.7041 	 130.618 	 
H 	 -67.4805 	 41.634 	 131.747 	 
S 	 -69.5179 	 38.341 	 135.008 	 
C 	 -69.0797 	 37.1957 	 136.217 	 
C 	 -68.4713 	 36.1214 	 135.611 	 
C 	 -68.5129 	 36.0906 	 134.207 	 
C 	 -69.2452 	 37.1685 	 133.77 	 
H 	 -68.1255 	 35.3839 	 136.315 	 
C 	 -67.9712 	 34.9912 	 133.361 	 
H 	 -67.0147 	 34.737 	 133.732 	 
H 	 -67.8852 	 35.3302 	 132.263 	 
C 	 -68.9292 	 33.8369 	 133.509 	 
H 	 -69.1927 	 33.5554 	 134.555 	 
H 	 -68.3551 	 32.9838 	 133.115 	 
C 	 -70.1579 	 33.8647 	 132.592 	 
H 	 -70.848 	 34.6493 	 132.983 	 
H 	 -70.7204 	 32.9297 	 132.463 	 
H 	 -69.9962 	 34.2405 	 131.58 	 
H 	 -70.9328 	 38.8695 	 129.4 	 
H 	 -69.1241 	 37.3454 	 137.231 	 
