34

S 	 65.9709 	 -2.92551 	 88.837 	 
C 	 64.5987 	 -2.13213 	 89.7384 	 
C 	 65.0553 	 -1.69356 	 90.9686 	 
C 	 66.448 	 -1.81571 	 91.0908 	 
C 	 67.0329 	 -2.4252 	 90.0755 	 
H 	 67.0558 	 -1.59119 	 91.9648 	 
C 	 64.2079 	 -1.0011 	 92.0459 	 
H 	 64.7141 	 -1.36375 	 92.9782 	 
H 	 63.1864 	 -1.35218 	 91.9336 	 
C 	 64.171 	 0.51223 	 91.9401 	 
H 	 65.0947 	 0.997028 	 92.1045 	 
H 	 63.8895 	 0.800238 	 90.933 	 
C 	 63.1669 	 1.07266 	 92.9273 	 
H 	 62.0713 	 0.840727 	 92.8579 	 
H 	 63.5797 	 0.756765 	 93.9586 	 
H 	 63.2669 	 2.14237 	 92.9466 	 
S 	 68.9161 	 -4.44217 	 89.9117 	 
C 	 70.5939 	 -4.03276 	 90.021 	 
C 	 70.8086 	 -2.6748 	 90.234 	 
C 	 69.6178 	 -1.88411 	 90.2403 	 
C 	 68.4716 	 -2.71182 	 90.0498 	 
H 	 71.8234 	 -2.32638 	 90.541 	 
C 	 69.5562 	 -0.381019 	 90.2563 	 
H 	 68.5767 	 -0.17528 	 90.7244 	 
H 	 69.4051 	 -0.0715351 	 89.224 	 
C 	 70.5746 	 0.450699 	 91.0092 	 
H 	 71.5184 	 0.19714 	 90.5144 	 
H 	 70.6483 	 0.138891 	 92.1263 	 
C 	 70.3399 	 1.95407 	 90.6923 	 
H 	 70.5385 	 2.1537 	 89.6038 	 
H 	 70.9459 	 2.63431 	 91.2595 	 
H 	 69.3598 	 2.23093 	 90.9008 	 
H 	 63.5662 	 -1.95543 	 89.5285 	 
H 	 71.3725 	 -4.80198 	 89.923 	 
