34

S 	 -40.7506 	 26.9612 	 84.7542 	 
C 	 -40.5533 	 25.467 	 85.644 	 
C 	 -41.5952 	 24.5508 	 85.4008 	 
C 	 -42.5108 	 25.0823 	 84.3692 	 
C 	 -42.2249 	 26.3491 	 83.9873 	 
H 	 -43.3784 	 24.4824 	 84.0209 	 
C 	 -41.7127 	 23.1597 	 85.9649 	 
H 	 -42.2285 	 23.1524 	 86.9462 	 
H 	 -40.7495 	 22.8082 	 86.1097 	 
C 	 -42.356 	 22.0814 	 85.068 	 
H 	 -42.4324 	 21.1935 	 85.6853 	 
H 	 -43.4179 	 22.3204 	 84.8544 	 
C 	 -41.7195 	 21.8785 	 83.6918 	 
H 	 -42.4156 	 21.1629 	 83.1505 	 
H 	 -41.6411 	 22.8252 	 83.1174 	 
H 	 -40.7513 	 21.5753 	 83.7754 	 
S 	 -44.3589 	 27.9653 	 83.5516 	 
C 	 -44.3786 	 28.943 	 82.1359 	 
C 	 -43.4077 	 28.5842 	 81.2295 	 
C 	 -42.4766 	 27.6319 	 81.7649 	 
C 	 -42.8588 	 27.2376 	 83.0385 	 
H 	 -43.3985 	 29.0274 	 80.2258 	 
C 	 -41.2328 	 27.1879 	 80.98 	 
H 	 -40.3504 	 27.0841 	 81.6693 	 
H 	 -41.0837 	 28.0746 	 80.3559 	 
C 	 -41.2978 	 25.9653 	 80.1315 	 
H 	 -41.4163 	 25.0569 	 80.7001 	 
H 	 -40.4426 	 25.8215 	 79.5771 	 
C 	 -42.4327 	 26.0589 	 79.15 	 
H 	 -43.3278 	 25.9835 	 79.7145 	 
H 	 -42.1806 	 25.2631 	 78.3997 	 
H 	 -42.5399 	 26.9563 	 78.5787 	 
H 	 -39.6814 	 25.2801 	 86.2662 	 
H 	 -45.0861 	 29.7705 	 81.8487 	 
