34

S 	 -34.2215 	 60.2858 	 108.661 	 
C 	 -32.6897 	 60.978 	 109.197 	 
C 	 -31.8544 	 60.0989 	 109.886 	 
C 	 -32.4819 	 58.7682 	 109.904 	 
C 	 -33.7503 	 58.6904 	 109.32 	 
H 	 -32.0437 	 57.9234 	 110.336 	 
C 	 -30.5851 	 60.3886 	 110.646 	 
H 	 -30.2555 	 59.3941 	 111.03 	 
H 	 -30.8055 	 61.0898 	 111.434 	 
C 	 -29.4864 	 60.9011 	 109.733 	 
H 	 -29.1935 	 60.0889 	 109.104 	 
H 	 -29.8501 	 61.6759 	 109.076 	 
C 	 -28.2366 	 61.4416 	 110.522 	 
H 	 -28.3014 	 62.2279 	 111.265 	 
H 	 -27.8669 	 60.4955 	 111.007 	 
H 	 -27.4422 	 61.851 	 109.859 	 
S 	 -36.3215 	 57.9653 	 109.754 	 
C 	 -36.9052 	 56.4984 	 109.279 	 
C 	 -35.8654 	 55.6004 	 109.062 	 
C 	 -34.5779 	 56.233 	 108.864 	 
C 	 -34.6655 	 57.6006 	 109.21 	 
H 	 -36.1286 	 54.5521 	 108.933 	 
C 	 -33.328 	 55.4444 	 108.524 	 
H 	 -33.4523 	 54.495 	 108.984 	 
H 	 -32.6936 	 56.0044 	 109.183 	 
C 	 -32.8108 	 55.4839 	 107.068 	 
H 	 -32.7889 	 56.4792 	 106.735 	 
H 	 -33.5923 	 54.9985 	 106.435 	 
C 	 -31.3935 	 54.8988 	 106.745 	 
H 	 -31.2687 	 53.8885 	 107.022 	 
H 	 -30.6548 	 55.409 	 107.321 	 
H 	 -31.2521 	 54.9006 	 105.67 	 
H 	 -32.3693 	 62.0535 	 108.955 	 
H 	 -37.9624 	 56.1455 	 109.441 	 
