34

S 	 -2.12632 	 76.2494 	 47.6514 	 
C 	 -0.45045 	 76.4148 	 48.2105 	 
C 	 -0.22749 	 75.8581 	 49.4508 	 
C 	 -1.37895 	 75.162 	 49.9131 	 
C 	 -2.45421 	 75.1744 	 48.9682 	 
H 	 -1.54945 	 74.6448 	 50.866 	 
C 	 1.02871 	 75.944 	 50.2746 	 
H 	 1.89157 	 75.5864 	 49.7875 	 
H 	 1.01276 	 75.2352 	 51.1244 	 
C 	 1.22322 	 77.3563 	 50.795 	 
H 	 1.5516 	 78.0316 	 49.9991 	 
H 	 0.275446 	 77.6915 	 51.1812 	 
C 	 2.12281 	 77.526 	 52.1045 	 
H 	 3.18867 	 77.1677 	 51.9976 	 
H 	 2.06734 	 78.5455 	 52.4865 	 
H 	 1.80726 	 76.9064 	 52.9264 	 
S 	 -5.08487 	 75.3613 	 48.5436 	 
C 	 -6.18117 	 73.997 	 48.8862 	 
C 	 -5.41816 	 72.8929 	 49.2916 	 
C 	 -4.00961 	 73.1662 	 49.4172 	 
C 	 -3.68699 	 74.4862 	 49.1012 	 
H 	 -5.84805 	 71.9226 	 49.2759 	 
C 	 -2.98073 	 71.9956 	 49.7483 	 
H 	 -3.56612 	 71.2033 	 50.257 	 
H 	 -2.24931 	 72.3305 	 50.4661 	 
C 	 -2.23786 	 71.4133 	 48.5344 	 
H 	 -1.46314 	 70.8219 	 48.9706 	 
H 	 -1.848 	 72.1639 	 47.8252 	 
C 	 -3.03789 	 70.4056 	 47.67 	 
H 	 -2.3333 	 69.6472 	 47.1928 	 
H 	 -3.57434 	 70.963 	 46.9241 	 
H 	 -3.60304 	 69.7672 	 48.3328 	 
H 	 0.259071 	 77.0068 	 47.803 	 
H 	 -7.20811 	 73.8936 	 48.533 	 
