34

S 	 44.4401 	 20.0732 	 47.0977 	 
C 	 43.3758 	 19.0847 	 46.0885 	 
C 	 42.052 	 19.1673 	 46.4323 	 
C 	 41.8899 	 20.1276 	 47.4774 	 
C 	 43.0485 	 20.715 	 47.9197 	 
H 	 40.9519 	 20.3906 	 47.9174 	 
C 	 40.8974 	 18.3415 	 45.8743 	 
H 	 41.1097 	 17.855 	 44.9561 	 
H 	 40.0774 	 19.0567 	 45.6633 	 
C 	 40.3668 	 17.2755 	 46.8847 	 
H 	 39.8245 	 17.7662 	 47.597 	 
H 	 39.6744 	 16.6222 	 46.3624 	 
C 	 41.3748 	 16.2774 	 47.5023 	 
H 	 42.0906 	 16.8615 	 48.052 	 
H 	 40.8426 	 15.4921 	 48.0523 	 
H 	 41.8276 	 15.7445 	 46.675 	 
S 	 43.883 	 23.247 	 48.4776 	 
C 	 43.8764 	 23.8201 	 50.1444 	 
C 	 43.0289 	 23.0079 	 50.9081 	 
C 	 42.6864 	 21.8206 	 50.1997 	 
C 	 43.2097 	 21.6913 	 48.899 	 
H 	 42.853 	 23.192 	 51.9609 	 
C 	 41.955 	 20.6985 	 50.9122 	 
H 	 41.1255 	 20.5761 	 50.273 	 
H 	 41.5774 	 20.9484 	 51.8313 	 
C 	 42.7381 	 19.3389 	 50.8918 	 
H 	 43.7066 	 19.4271 	 51.3119 	 
H 	 42.8001 	 18.9322 	 49.8625 	 
C 	 42.016 	 18.3239 	 51.8038 	 
H 	 42.6355 	 17.4217 	 51.7929 	 
H 	 40.9596 	 18.0725 	 51.4789 	 
H 	 42.155 	 18.6566 	 52.8746 	 
H 	 43.7023 	 18.272 	 45.4364 	 
H 	 44.3659 	 24.7302 	 50.4548 	 
