34

S 	 -34.8925 	 64.3689 	 109.224 	 
C 	 -36.2867 	 64.457 	 110.26 	 
C 	 -35.966 	 64.5875 	 111.6 	 
C 	 -34.5725 	 64.3891 	 111.777 	 
C 	 -33.8393 	 64.2831 	 110.602 	 
H 	 -34.0307 	 64.3366 	 112.703 	 
C 	 -36.9587 	 64.7314 	 112.798 	 
H 	 -36.481 	 64.3237 	 113.693 	 
H 	 -37.8195 	 64.1668 	 112.452 	 
C 	 -37.461 	 66.1835 	 113.225 	 
H 	 -38.1597 	 66.0088 	 114.075 	 
H 	 -36.7012 	 66.8405 	 113.582 	 
C 	 -38.2844 	 66.8165 	 112.108 	 
H 	 -37.6551 	 66.7962 	 111.096 	 
H 	 -39.1216 	 66.1358 	 111.929 	 
H 	 -38.6146 	 67.8044 	 112.378 	 
S 	 -31.4881 	 62.8787 	 110.953 	 
C 	 -30.1431 	 63.47 	 110.085 	 
C 	 -30.3452 	 64.7602 	 109.577 	 
C 	 -31.6545 	 65.2375 	 109.84 	 
C 	 -32.4269 	 64.307 	 110.464 	 
H 	 -29.4831 	 65.2107 	 109.007 	 
C 	 -32.0687 	 66.6635 	 109.437 	 
H 	 -33.1723 	 66.7033 	 109.3 	 
H 	 -31.7366 	 66.6881 	 108.347 	 
C 	 -31.451 	 67.8399 	 110.13 	 
H 	 -31.5987 	 68.8185 	 109.617 	 
H 	 -30.3644 	 67.6689 	 110.142 	 
C 	 -31.9268 	 67.9443 	 111.564 	 
H 	 -31.9431 	 66.9899 	 112.076 	 
H 	 -32.9037 	 68.4001 	 111.632 	 
H 	 -31.12 	 68.4448 	 112.115 	 
H 	 -37.3436 	 64.5415 	 109.92 	 
H 	 -29.3102 	 62.8632 	 109.737 	 
