34

S 	 -52.8694 	 7.43892 	 92.7362 	 
C 	 -52.5708 	 7.07091 	 94.3758 	 
C 	 -52.3501 	 8.18069 	 95.1471 	 
C 	 -52.6247 	 9.3771 	 94.3847 	 
C 	 -52.8053 	 9.16999 	 93.0397 	 
H 	 -52.4291 	 10.3675 	 94.72 	 
C 	 -51.9172 	 8.33335 	 96.5907 	 
H 	 -52.6891 	 7.79706 	 97.2341 	 
H 	 -51.8597 	 9.38885 	 96.8555 	 
C 	 -50.5764 	 7.72461 	 96.8152 	 
H 	 -50.5106 	 7.49356 	 97.8787 	 
H 	 -50.5739 	 6.70162 	 96.3964 	 
C 	 -49.3272 	 8.39523 	 96.3457 	 
H 	 -48.408 	 7.83632 	 96.6689 	 
H 	 -49.3917 	 8.51821 	 95.2665 	 
H 	 -49.2996 	 9.42772 	 96.7584 	 
S 	 -51.4167 	 9.97584 	 90.7778 	 
C 	 -52.0021 	 11.4417 	 90.0151 	 
C 	 -53.1026 	 11.9351 	 90.5029 	 
C 	 -53.5541 	 11.1973 	 91.688 	 
C 	 -52.7218 	 10.1137 	 91.9405 	 
H 	 -53.5983 	 12.8137 	 90.0628 	 
C 	 -54.8697 	 11.4506 	 92.3578 	 
H 	 -54.8533 	 11.0755 	 93.4287 	 
H 	 -55.7255 	 10.8412 	 91.909 	 
C 	 -55.4954 	 12.8495 	 92.2264 	 
H 	 -56.4581 	 12.8224 	 92.6742 	 
H 	 -55.6152 	 13.0775 	 91.1207 	 
C 	 -54.8719 	 14.0951 	 92.9049 	 
H 	 -54.4426 	 13.8504 	 93.8392 	 
H 	 -55.6356 	 14.9002 	 92.9665 	 
H 	 -54.1387 	 14.5625 	 92.2596 	 
H 	 -52.6808 	 6.11025 	 94.9728 	 
H 	 -51.4485 	 11.8083 	 89.1482 	 
