34

S 	 -5.17645 	 -9.40424 	 82.263 	 
C 	 -5.86076 	 -10.1789 	 80.7814 	 
C 	 -6.48099 	 -9.24682 	 79.9393 	 
C 	 -6.40496 	 -7.89229 	 80.476 	 
C 	 -5.78966 	 -7.82098 	 81.6985 	 
H 	 -6.84057 	 -6.94002 	 80.0359 	 
C 	 -7.11265 	 -9.61985 	 78.591 	 
H 	 -7.216 	 -10.7065 	 78.5289 	 
H 	 -6.33848 	 -9.41981 	 77.769 	 
C 	 -8.36708 	 -8.82685 	 78.1997 	 
H 	 -9.21666 	 -9.23039 	 78.8554 	 
H 	 -8.30252 	 -7.79957 	 78.4819 	 
C 	 -8.87551 	 -8.96901 	 76.7447 	 
H 	 -8.02828 	 -8.78934 	 76.0655 	 
H 	 -9.31043 	 -9.93738 	 76.5591 	 
H 	 -9.65902 	 -8.29222 	 76.3981 	 
S 	 -5.6657 	 -7.1022 	 84.2696 	 
C 	 -5.05699 	 -5.51833 	 84.6527 	 
C 	 -5.26051 	 -4.62181 	 83.6657 	 
C 	 -5.58304 	 -5.32473 	 82.4493 	 
C 	 -5.67868 	 -6.66793 	 82.5926 	 
H 	 -5.01957 	 -3.56285 	 83.8371 	 
C 	 -5.65599 	 -4.65643 	 81.0745 	 
H 	 -5.35337 	 -5.24711 	 80.246 	 
H 	 -4.99309 	 -3.82204 	 81.0714 	 
C 	 -7.04359 	 -4.13435 	 80.6794 	 
H 	 -7.33676 	 -3.545 	 81.5135 	 
H 	 -7.70607 	 -4.99132 	 80.5963 	 
C 	 -7.02765 	 -3.37535 	 79.3694 	 
H 	 -6.42603 	 -2.47885 	 79.4775 	 
H 	 -8.06655 	 -3.11306 	 78.9955 	 
H 	 -6.48167 	 -4.0483 	 78.6676 	 
H 	 -5.83166 	 -11.1853 	 80.5144 	 
H 	 -4.90908 	 -5.12521 	 85.6703 	 
