34

S 	 -66.2936 	 61.4017 	 128.532 	 
C 	 -67.9092 	 61.9692 	 128.95 	 
C 	 -68.8506 	 61.5314 	 128.066 	 
C 	 -68.2721 	 60.8017 	 126.996 	 
C 	 -66.8908 	 60.5962 	 127.121 	 
H 	 -68.7835 	 60.263 	 126.24 	 
C 	 -70.2627 	 61.8929 	 128.141 	 
H 	 -70.645 	 62.4211 	 127.246 	 
H 	 -70.4342 	 62.6349 	 128.906 	 
C 	 -71.1339 	 60.7751 	 128.644 	 
H 	 -72.1403 	 60.9899 	 128.411 	 
H 	 -70.8955 	 59.8829 	 128.033 	 
C 	 -70.9856 	 60.3461 	 130.085 	 
H 	 -70.0606 	 59.7857 	 130.163 	 
H 	 -71.0071 	 61.2038 	 130.843 	 
H 	 -71.8211 	 59.704 	 130.242 	 
S 	 -65.0247 	 58.5627 	 127.031 	 
C 	 -64.5245 	 57.9637 	 125.471 	 
C 	 -65.1475 	 58.5752 	 124.439 	 
C 	 -65.8429 	 59.7398 	 124.884 	 
C 	 -66.1076 	 59.7517 	 126.263 	 
H 	 -64.7927 	 58.1529 	 123.523 	 
C 	 -66.3606 	 60.7307 	 123.813 	 
H 	 -65.5594 	 60.9383 	 123.097 	 
H 	 -66.4402 	 61.6772 	 124.376 	 
C 	 -67.5936 	 60.2978 	 123.018 	 
H 	 -68.4022 	 60.5206 	 123.606 	 
H 	 -67.6395 	 59.2861 	 122.722 	 
C 	 -67.6664 	 61.094 	 121.692 	 
H 	 -67.4263 	 62.096 	 121.925 	 
H 	 -68.7365 	 61.1139 	 121.197 	 
H 	 -66.8259 	 60.6886 	 121.059 	 
H 	 -68.2309 	 62.4629 	 129.857 	 
H 	 -63.7857 	 57.2066 	 125.392 	 
