34

S 	 -12.1794 	 52.8454 	 33.0794 	 
C 	 -10.9568 	 52.6492 	 31.8306 	 
C 	 -10.1116 	 51.658 	 32.2569 	 
C 	 -10.5301 	 50.872 	 33.3555 	 
C 	 -11.6467 	 51.4464 	 33.9667 	 
H 	 -10.0548 	 49.9793 	 33.7309 	 
C 	 -8.93856 	 51.1982 	 31.4891 	 
H 	 -8.25395 	 50.744 	 32.2856 	 
H 	 -8.46907 	 52.1051 	 31.1235 	 
C 	 -9.27903 	 50.1828 	 30.3567 	 
H 	 -9.86582 	 49.3179 	 30.6795 	 
H 	 -9.92779 	 50.7394 	 29.6395 	 
C 	 -8.07139 	 49.5344 	 29.7228 	 
H 	 -7.67597 	 48.8131 	 30.3432 	 
H 	 -8.01285 	 49.0887 	 28.739 	 
H 	 -7.26287 	 50.2561 	 29.7867 	 
S 	 -12.7995 	 52.2721 	 36.3025 	 
C 	 -13.0678 	 51.1104 	 37.6637 	 
C 	 -13.0306 	 49.8245 	 37.1581 	 
C 	 -12.4778 	 49.7373 	 35.8413 	 
C 	 -12.2804 	 50.9931 	 35.1974 	 
H 	 -13.2313 	 48.9626 	 37.7936 	 
C 	 -12.2833 	 48.3869 	 35.1721 	 
H 	 -12.4198 	 47.5342 	 35.7787 	 
H 	 -11.2522 	 48.3464 	 34.8 	 
C 	 -13.2854 	 48.2325 	 33.9885 	 
H 	 -13.247 	 49.1148 	 33.3613 	 
H 	 -14.2559 	 48.1585 	 34.4295 	 
C 	 -12.8372 	 46.9779 	 33.1417 	 
H 	 -12.7584 	 46.0292 	 33.7833 	 
H 	 -11.9341 	 47.0861 	 32.6231 	 
H 	 -13.5863 	 46.8343 	 32.3738 	 
H 	 -10.6159 	 53.2192 	 30.9304 	 
H 	 -13.5887 	 51.4234 	 38.58 	 
