34

S 	 13.7777 	 23.9723 	 65.7668 	 
C 	 13.2746 	 24.9465 	 64.4769 	 
C 	 12.6578 	 26.1349 	 64.866 	 
C 	 12.4967 	 26.1991 	 66.2807 	 
C 	 13.092 	 25.1069 	 66.8864 	 
H 	 11.977 	 26.9256 	 66.8559 	 
C 	 12.2413 	 27.2804 	 63.9418 	 
H 	 11.2429 	 27.2247 	 63.5097 	 
H 	 12.8192 	 27.15 	 63.0133 	 
C 	 12.5771 	 28.7232 	 64.4936 	 
H 	 12.067 	 29.4337 	 63.8503 	 
H 	 12.073 	 28.937 	 65.4141 	 
C 	 14.0444 	 29.1217 	 64.4156 	 
H 	 14.1118 	 30.2057 	 64.523 	 
H 	 14.6643 	 28.7116 	 65.2598 	 
H 	 14.469 	 28.8664 	 63.4838 	 
S 	 11.8668 	 23.5435 	 68.8105 	 
C 	 12.4849 	 23.6215 	 70.4959 	 
C 	 13.5866 	 24.5118 	 70.6298 	 
C 	 13.9113 	 25.1254 	 69.3299 	 
C 	 13.1046 	 24.7097 	 68.266 	 
H 	 13.9192 	 24.8616 	 71.5885 	 
C 	 15.0707 	 26.0988 	 69.1954 	 
H 	 15.2255 	 26.5003 	 68.1806 	 
H 	 15.9985 	 25.4862 	 69.2964 	 
C 	 15.0594 	 27.2289 	 70.2417 	 
H 	 16.1108 	 27.5918 	 70.2856 	 
H 	 15.1287 	 26.8397 	 71.2418 	 
C 	 13.9566 	 28.3125 	 70.0336 	 
H 	 13.9951 	 28.6717 	 69.0354 	 
H 	 14.2505 	 29.1483 	 70.5461 	 
H 	 12.9815 	 28.0737 	 70.4113 	 
H 	 13.6504 	 24.8228 	 63.4196 	 
H 	 12.0104 	 23.3515 	 71.4057 	 
