34

S 	 -49.037 	 8.44619 	 92.2917 	 
C 	 -48.3544 	 9.9724 	 92.8372 	 
C 	 -48.7935 	 11.019 	 92.1402 	 
C 	 -49.6745 	 10.6547 	 91.0886 	 
C 	 -49.9332 	 9.31139 	 91.0266 	 
H 	 -50.1538 	 11.3512 	 90.401 	 
C 	 -48.145 	 12.4254 	 92.2422 	 
H 	 -48.2668 	 12.6754 	 93.2944 	 
H 	 -48.8893 	 13.0803 	 91.6097 	 
C 	 -46.6867 	 12.631 	 91.9954 	 
H 	 -46.3824 	 13.669 	 92.0595 	 
H 	 -46.1486 	 12.0839 	 92.6656 	 
C 	 -46.4496 	 12.2882 	 90.5135 	 
H 	 -46.579 	 11.2869 	 90.2873 	 
H 	 -46.9297 	 12.9828 	 89.8358 	 
H 	 -45.3945 	 12.4005 	 90.3264 	 
S 	 -50.3956 	 8.96163 	 88.2748 	 
C 	 -51.9068 	 8.08536 	 87.7461 	 
C 	 -52.5323 	 7.5375 	 88.8385 	 
C 	 -51.8912 	 7.86604 	 90.0629 	 
C 	 -50.7784 	 8.73304 	 89.9716 	 
H 	 -53.4148 	 6.98248 	 88.7578 	 
C 	 -52.4209 	 7.33259 	 91.3908 	 
H 	 -53.4807 	 6.99945 	 91.28 	 
H 	 -52.3343 	 8.10497 	 92.1698 	 
C 	 -51.6282 	 6.10189 	 91.8715 	 
H 	 -50.6431 	 6.43142 	 91.5675 	 
H 	 -51.7803 	 5.27289 	 91.2163 	 
C 	 -51.7316 	 5.75784 	 93.3393 	 
H 	 -52.7044 	 5.36753 	 93.4826 	 
H 	 -51.8709 	 6.52926 	 94.0433 	 
H 	 -51.0142 	 5.00508 	 93.5878 	 
H 	 -47.6171 	 10.1204 	 93.6057 	 
H 	 -52.35 	 8.13488 	 86.7575 	 
