34

S 	 -60.6616 	 35.3732 	 133.397 	 
C 	 -58.9299 	 35.351 	 133.802 	 
C 	 -58.6678 	 36.5246 	 134.519 	 
C 	 -59.7409 	 37.4416 	 134.604 	 
C 	 -60.8946 	 37.0335 	 134.012 	 
H 	 -59.6831 	 38.4204 	 135.044 	 
C 	 -57.259 	 36.853 	 135.002 	 
H 	 -56.9604 	 37.8875 	 134.878 	 
H 	 -56.55 	 36.4127 	 134.318 	 
C 	 -57.0314 	 36.502 	 136.487 	 
H 	 -57.8272 	 36.8564 	 137.194 	 
H 	 -57.1267 	 35.4672 	 136.639 	 
C 	 -55.806 	 37.1948 	 137.172 	 
H 	 -54.9015 	 36.6294 	 136.822 	 
H 	 -55.7328 	 38.2891 	 136.829 	 
H 	 -55.9279 	 37.1265 	 138.204 	 
S 	 -63.5305 	 37.1948 	 134.496 	 
C 	 -64.3666 	 38.7531 	 134.246 	 
C 	 -63.5638 	 39.6727 	 133.523 	 
C 	 -62.2217 	 39.1922 	 133.358 	 
C 	 -62.0642 	 37.8584 	 133.85 	 
H 	 -64.0104 	 40.6052 	 133.244 	 
C 	 -61.0884 	 39.9726 	 132.728 	 
H 	 -60.2104 	 39.3568 	 132.536 	 
H 	 -60.8508 	 40.8078 	 133.411 	 
C 	 -61.4557 	 40.7306 	 131.424 	 
H 	 -62.3097 	 41.3752 	 131.581 	 
H 	 -61.7726 	 39.9139 	 130.765 	 
C 	 -60.267 	 41.4409 	 130.687 	 
H 	 -59.5435 	 40.6942 	 130.47 	 
H 	 -59.8338 	 42.1865 	 131.186 	 
H 	 -60.6803 	 41.7537 	 129.743 	 
H 	 -58.3037 	 34.5181 	 133.73 	 
H 	 -65.3565 	 39.0403 	 134.574 	 
