34

S 	 2.27738 	 21.2061 	 55.9849 	 
C 	 3.84161 	 22.0679 	 55.7351 	 
C 	 4.55684 	 22.2136 	 56.9282 	 
C 	 3.90456 	 21.5482 	 57.9705 	 
C 	 2.73195 	 20.9681 	 57.6483 	 
H 	 4.18644 	 21.5264 	 58.9429 	 
C 	 5.9681 	 22.8157 	 57.0581 	 
H 	 5.87325 	 23.4664 	 57.9509 	 
H 	 6.18462 	 23.5568 	 56.2218 	 
C 	 7.08868 	 21.814 	 57.2987 	 
H 	 6.92126 	 21.0194 	 58.1135 	 
H 	 7.34714 	 21.2971 	 56.3267 	 
C 	 8.40565 	 22.6542 	 57.6837 	 
H 	 9.12116 	 22.0181 	 58.1774 	 
H 	 8.81583 	 22.9306 	 56.6984 	 
H 	 8.17016 	 23.539 	 58.2903 	 
S 	 1.43317 	 18.556 	 57.8099 	 
C 	 0.146156 	 18.3512 	 58.9861 	 
C 	 0.0957469 	 19.4437 	 59.8772 	 
C 	 1.07117 	 20.4587 	 59.5953 	 
C 	 1.78931 	 20.1887 	 58.398 	 
H 	 -0.661262 	 19.5784 	 60.661 	 
C 	 1.21274 	 21.7487 	 60.3422 	 
H 	 0.636911 	 22.5649 	 59.9922 	 
H 	 2.24496 	 22.1117 	 60.2008 	 
C 	 0.9209 	 21.7673 	 61.8765 	 
H 	 -0.226417 	 21.6956 	 62.0957 	 
H 	 0.992087 	 22.7767 	 62.2806 	 
C 	 1.86948 	 20.7836 	 62.634 	 
H 	 2.79619 	 21.3165 	 62.6314 	 
H 	 2.09631 	 19.8325 	 62.1372 	 
H 	 1.62973 	 20.514 	 63.6548 	 
H 	 4.08039 	 22.5367 	 54.7814 	 
H 	 -0.578852 	 17.5071 	 59.0275 	 
