34

S 	 -41.097 	 36.0858 	 78.597 	 
C 	 -41.2069 	 36.3093 	 76.7733 	 
C 	 -42.4599 	 36.2457 	 76.289 	 
C 	 -43.333 	 35.8737 	 77.3674 	 
C 	 -42.7891 	 35.7287 	 78.6397 	 
H 	 -44.3536 	 35.6039 	 77.2855 	 
C 	 -42.8949 	 36.1622 	 74.7678 	 
H 	 -43.0008 	 35.0826 	 74.5749 	 
H 	 -42.0053 	 36.5464 	 74.2521 	 
C 	 -44.1579 	 36.9088 	 74.3035 	 
H 	 -44.5456 	 36.4941 	 73.3888 	 
H 	 -44.8836 	 36.6149 	 75.0691 	 
C 	 -44.1278 	 38.4519 	 74.2056 	 
H 	 -45.0342 	 38.9244 	 74.1567 	 
H 	 -43.6055 	 38.819 	 75.0758 	 
H 	 -43.4347 	 38.7697 	 73.4716 	 
S 	 -44.976 	 35.9048 	 80.3632 	 
C 	 -45.025 	 34.9638 	 81.8123 	 
C 	 -43.8731 	 34.2101 	 81.9506 	 
C 	 -43.0515 	 34.2564 	 80.7498 	 
C 	 -43.4487 	 35.2174 	 79.8022 	 
H 	 -43.7177 	 33.5817 	 82.849 	 
C 	 -41.7943 	 33.3881 	 80.5724 	 
H 	 -41.0052 	 34.1119 	 80.5912 	 
H 	 -41.8114 	 32.9846 	 79.579 	 
C 	 -41.5823 	 32.3205 	 81.6927 	 
H 	 -42.3841 	 31.5847 	 81.5278 	 
H 	 -41.7001 	 32.7515 	 82.658 	 
C 	 -40.1043 	 31.8404 	 81.6098 	 
H 	 -39.856 	 31.7133 	 80.5321 	 
H 	 -39.9583 	 30.8862 	 82.0185 	 
H 	 -39.3279 	 32.5123 	 81.9956 	 
H 	 -40.3396 	 36.3441 	 76.1609 	 
H 	 -45.8217 	 34.9331 	 82.5469 	 
