34

S 	 -119.715 	 45.4324 	 134.02 	 
C 	 -120.138 	 47.0528 	 134.627 	 
C 	 -119.125 	 47.77 	 135.201 	 
C 	 -117.872 	 47.1324 	 134.817 	 
C 	 -118.026 	 45.9013 	 134.172 	 
H 	 -116.909 	 47.4822 	 134.964 	 
C 	 -119.21 	 49.1252 	 135.916 	 
H 	 -119.676 	 49.0377 	 136.811 	 
H 	 -119.899 	 49.7525 	 135.325 	 
C 	 -117.913 	 49.95 	 136.151 	 
H 	 -118.103 	 50.8367 	 136.735 	 
H 	 -117.184 	 49.3048 	 136.648 	 
C 	 -117.279 	 50.4232 	 134.786 	 
H 	 -118.018 	 50.8708 	 134.097 	 
H 	 -116.564 	 51.2573 	 134.919 	 
H 	 -116.775 	 49.7101 	 134.154 	 
S 	 -117.167 	 43.2977 	 134.061 	 
C 	 -115.677 	 42.9095 	 133.187 	 
C 	 -114.905 	 44.035 	 132.951 	 
C 	 -115.608 	 45.2746 	 133.389 	 
C 	 -116.899 	 45.011 	 133.801 	 
H 	 -113.942 	 43.9793 	 132.419 	 
C 	 -115.161 	 46.6862 	 132.963 	 
H 	 -115.079 	 47.4333 	 133.81 	 
H 	 -115.971 	 47.0538 	 132.317 	 
C 	 -113.896 	 46.7403 	 132.186 	 
H 	 -113.961 	 46.0392 	 131.442 	 
H 	 -113.132 	 46.4218 	 132.897 	 
C 	 -113.559 	 48.0866 	 131.512 	 
H 	 -112.685 	 48.1038 	 130.884 	 
H 	 -113.424 	 48.792 	 132.323 	 
H 	 -114.422 	 48.4102 	 130.949 	 
H 	 -121.153 	 47.3888 	 134.695 	 
H 	 -115.447 	 41.9552 	 132.813 	 
