34

S 	 -52.1992 	 5.61261 	 94.676 	 
C 	 -52.0709 	 4.76628 	 96.1918 	 
C 	 -51.1691 	 3.71139 	 96.112 	 
C 	 -50.6945 	 3.53247 	 94.7307 	 
C 	 -51.2274 	 4.43376 	 93.8654 	 
H 	 -50.0833 	 2.69257 	 94.4944 	 
C 	 -50.6702 	 2.81747 	 97.2256 	 
H 	 -50.1432 	 3.41991 	 98.0431 	 
H 	 -49.9318 	 2.1027 	 96.856 	 
C 	 -51.8376 	 1.94756 	 97.7226 	 
H 	 -51.4667 	 0.961663 	 98.0299 	 
H 	 -52.1931 	 2.44685 	 98.684 	 
C 	 -52.8432 	 1.47808 	 96.7273 	 
H 	 -53.397 	 2.28291 	 96.3124 	 
H 	 -52.4179 	 0.924377 	 95.9316 	 
H 	 -53.4885 	 0.799997 	 97.2501 	 
S 	 -52.335 	 4.80143 	 91.3579 	 
C 	 -51.2681 	 4.52991 	 89.9908 	 
C 	 -49.9687 	 4.40637 	 90.3119 	 
C 	 -49.8417 	 4.35713 	 91.7435 	 
C 	 -51.0324 	 4.43996 	 92.4292 	 
H 	 -49.1268 	 4.22288 	 89.6725 	 
C 	 -48.4332 	 4.48922 	 92.3696 	 
H 	 -47.6982 	 4.30172 	 91.6221 	 
H 	 -48.3565 	 3.67588 	 93.0771 	 
C 	 -48.0252 	 5.78854 	 93.1167 	 
H 	 -46.9773 	 5.88483 	 93.1577 	 
H 	 -48.3215 	 5.80968 	 94.1673 	 
C 	 -48.5459 	 7.02986 	 92.4515 	 
H 	 -47.9781 	 7.93165 	 92.6728 	 
H 	 -49.6012 	 7.31978 	 92.7828 	 
H 	 -48.5441 	 6.78489 	 91.3978 	 
H 	 -52.5308 	 5.05837 	 97.083 	 
H 	 -51.6149 	 4.7469 	 89.0198 	 
