34

S 	 -39.6896 	 25.3933 	 93.5206 	 
C 	 -41.0774 	 24.3081 	 93.7062 	 
C 	 -41.513 	 23.8795 	 92.4436 	 
C 	 -40.8198 	 24.5322 	 91.3871 	 
C 	 -39.8465 	 25.4545 	 91.7815 	 
H 	 -41.0675 	 24.3981 	 90.2994 	 
C 	 -42.7854 	 23.0892 	 92.2275 	 
H 	 -42.6079 	 21.9564 	 92.3073 	 
H 	 -43.0696 	 23.273 	 91.1573 	 
C 	 -44.0189 	 23.4938 	 93.0642 	 
H 	 -44.859 	 22.9017 	 92.6839 	 
H 	 -43.7967 	 23.3147 	 94.1817 	 
C 	 -44.3218 	 25.0191 	 92.876 	 
H 	 -45.4088 	 25.2528 	 93.1834 	 
H 	 -43.5511 	 25.5237 	 93.5834 	 
H 	 -44.072 	 25.394 	 91.9375 	 
S 	 -38.7233 	 27.9906 	 91.5792 	 
C 	 -38.1505 	 28.5059 	 90.0801 	 
C 	 -38.0242 	 27.4764 	 89.1845 	 
C 	 -38.5378 	 26.1883 	 89.6472 	 
C 	 -39.0015 	 26.3344 	 90.9765 	 
H 	 -37.8185 	 27.6663 	 88.1091 	 
C 	 -38.7354 	 25.0058 	 88.6544 	 
H 	 -39.4058 	 24.2006 	 89.0323 	 
H 	 -37.7941 	 24.4794 	 88.6048 	 
C 	 -39.3046 	 25.4641 	 87.2586 	 
H 	 -39.1958 	 24.5972 	 86.6164 	 
H 	 -38.6859 	 26.2628 	 86.8458 	 
C 	 -40.8196 	 25.9509 	 87.2889 	 
H 	 -40.9991 	 26.5636 	 86.4346 	 
H 	 -41.0757 	 26.4805 	 88.2131 	 
H 	 -41.4944 	 25.0657 	 87.2918 	 
H 	 -41.4905 	 24.0158 	 94.6647 	 
H 	 -37.581 	 29.3987 	 89.9406 	 
