34

S 	 -10.795 	 -12.2585 	 85.5663 	 
C 	 -11.9821 	 -13.5251 	 85.3788 	 
C 	 -13.1859 	 -13.0795 	 84.8617 	 
C 	 -13.1895 	 -11.6511 	 84.794 	 
C 	 -11.937 	 -11.0605 	 85.0755 	 
H 	 -14.0179 	 -11.0907 	 84.5084 	 
C 	 -14.4246 	 -13.8411 	 84.7105 	 
H 	 -14.1225 	 -14.8535 	 84.7288 	 
H 	 -14.6542 	 -13.6035 	 83.6814 	 
C 	 -15.5482 	 -13.4581 	 85.6131 	 
H 	 -15.2971 	 -13.6135 	 86.6313 	 
H 	 -15.5422 	 -12.2842 	 85.5967 	 
C 	 -16.9616 	 -13.9649 	 85.3782 	 
H 	 -17.1406 	 -13.6525 	 84.3423 	 
H 	 -17.193 	 -15.0111 	 85.5448 	 
H 	 -17.5767 	 -13.4166 	 86.0677 	 
S 	 -10.2699 	 -9.17615 	 83.9136 	 
C 	 -10.3608 	 -7.56102 	 84.2569 	 
C 	 -11.3985 	 -7.31863 	 85.1539 	 
C 	 -12.2201 	 -8.48929 	 85.4005 	 
C 	 -11.5559 	 -9.65775 	 84.9966 	 
H 	 -11.5921 	 -6.34349 	 85.532 	 
C 	 -13.5998 	 -8.46188 	 86.0816 	 
H 	 -13.4709 	 -8.04715 	 87.0452 	 
H 	 -14.1677 	 -9.43706 	 86.132 	 
C 	 -14.6533 	 -7.50619 	 85.3527 	 
H 	 -14.6979 	 -7.81434 	 84.3294 	 
H 	 -14.2808 	 -6.46858 	 85.3099 	 
C 	 -16.0866 	 -7.56515 	 85.91 	 
H 	 -16.0988 	 -7.20157 	 86.8897 	 
H 	 -16.5949 	 -8.49632 	 86.0121 	 
H 	 -16.6838 	 -6.82126 	 85.363 	 
H 	 -11.8373 	 -14.5965 	 85.6347 	 
H 	 -9.80753 	 -6.81619 	 83.8135 	 
