34

S 	 -38.6726 	 55.0375 	 112.395 	 
C 	 -39.5735 	 56.5162 	 112.489 	 
C 	 -40.9126 	 56.2885 	 112.156 	 
C 	 -41.183 	 54.96 	 111.727 	 
C 	 -40.0997 	 54.1608 	 111.866 	 
H 	 -42.1122 	 54.5721 	 111.31 	 
C 	 -41.993 	 57.2819 	 112.265 	 
H 	 -41.4477 	 58.132 	 111.879 	 
H 	 -41.9753 	 57.6173 	 113.31 	 
C 	 -43.3978 	 57.0763 	 111.645 	 
H 	 -43.6977 	 55.9809 	 111.662 	 
H 	 -44.1042 	 57.62 	 112.247 	 
C 	 -43.556 	 57.6122 	 110.242 	 
H 	 -43.1595 	 56.8943 	 109.533 	 
H 	 -44.5938 	 57.7558 	 109.828 	 
H 	 -42.9582 	 58.5251 	 110.155 	 
S 	 -39.8605 	 51.7317 	 113.139 	 
C 	 -40.0049 	 50.2979 	 112.182 	 
C 	 -39.8109 	 50.5584 	 110.841 	 
C 	 -39.9486 	 51.952 	 110.497 	 
C 	 -40.0458 	 52.7521 	 111.696 	 
H 	 -39.5983 	 49.8316 	 110.102 	 
C 	 -39.9353 	 52.4595 	 109.04 	 
H 	 -39.2628 	 51.8625 	 108.454 	 
H 	 -39.5885 	 53.4491 	 109.036 	 
C 	 -41.3282 	 52.3412 	 108.356 	 
H 	 -42.073 	 52.595 	 109.056 	 
H 	 -41.4619 	 51.3093 	 108.005 	 
C 	 -41.4247 	 53.1897 	 107.123 	 
H 	 -40.5558 	 53.1326 	 106.478 	 
H 	 -41.5107 	 54.2547 	 107.435 	 
H 	 -42.3515 	 52.9383 	 106.568 	 
H 	 -39.1703 	 57.5247 	 112.638 	 
H 	 -39.6968 	 49.3312 	 112.605 	 
