34

S 	 -43.3619 	 26.4349 	 87.5613 	 
C 	 -44.9056 	 26.2731 	 88.341 	 
C 	 -45.561 	 25.1121 	 88.0396 	 
C 	 -44.9167 	 24.2682 	 87.1358 	 
C 	 -43.6639 	 24.858 	 86.8228 	 
H 	 -45.2699 	 23.3554 	 86.7369 	 
C 	 -46.8846 	 24.7269 	 88.653 	 
H 	 -47.7519 	 24.8551 	 88.0205 	 
H 	 -47.09 	 25.4062 	 89.4684 	 
C 	 -47.0438 	 23.1998 	 89.2184 	 
H 	 -48.1002 	 23.0788 	 89.6194 	 
H 	 -47.0722 	 22.5517 	 88.3228 	 
C 	 -45.9348 	 22.6514 	 90.1728 	 
H 	 -44.9947 	 22.6357 	 89.6778 	 
H 	 -45.653 	 23.1687 	 91.0812 	 
H 	 -46.0702 	 21.6185 	 90.473 	 
S 	 -42.3216 	 25.5966 	 84.4859 	 
C 	 -41.4169 	 24.4416 	 83.6171 	 
C 	 -41.5543 	 23.2454 	 84.1657 	 
C 	 -42.3547 	 23.1873 	 85.3739 	 
C 	 -42.8379 	 24.3843 	 85.7201 	 
H 	 -41.1274 	 22.4137 	 83.6566 	 
C 	 -42.6019 	 21.8573 	 86.1069 	 
H 	 -43.473 	 21.4548 	 85.6715 	 
H 	 -42.8785 	 22.0559 	 87.1738 	 
C 	 -41.4291 	 20.8222 	 86.197 	 
H 	 -40.5576 	 21.1663 	 86.8027 	 
H 	 -41.0881 	 20.525 	 85.2126 	 
C 	 -41.6766 	 19.5372 	 87.018 	 
H 	 -40.7271 	 19.0626 	 87.1819 	 
H 	 -42.3336 	 18.7919 	 86.5847 	 
H 	 -42.0817 	 19.8248 	 88.0221 	 
H 	 -45.2281 	 26.9899 	 89.0636 	 
H 	 -40.8844 	 24.4917 	 82.671 	 
