34

S 	 -89.5293 	 49.3077 	 132.236 	 
C 	 -91.1891 	 49.9387 	 132.32 	 
C 	 -91.2502 	 51.2167 	 131.822 	 
C 	 -90.0675 	 51.6849 	 131.266 	 
C 	 -89.0159 	 50.7518 	 131.332 	 
H 	 -89.9713 	 52.6061 	 130.692 	 
C 	 -92.5839 	 51.9538 	 131.779 	 
H 	 -93.1993 	 51.0737 	 131.771 	 
H 	 -92.7675 	 52.4327 	 130.784 	 
C 	 -92.8294 	 52.8962 	 132.965 	 
H 	 -93.8169 	 53.2896 	 132.832 	 
H 	 -92.9548 	 52.272 	 133.897 	 
C 	 -91.844 	 54.0339 	 133.147 	 
H 	 -91.9198 	 54.9239 	 132.418 	 
H 	 -92.0235 	 54.5295 	 134.08 	 
H 	 -90.8385 	 53.6132 	 133.324 	 
S 	 -86.9074 	 49.1636 	 130.551 	 
C 	 -85.4531 	 49.8193 	 129.857 	 
C 	 -85.5585 	 51.21 	 129.767 	 
C 	 -86.7066 	 51.7819 	 130.417 	 
C 	 -87.6167 	 50.7836 	 130.892 	 
H 	 -84.7677 	 51.7585 	 129.327 	 
C 	 -86.9383 	 53.307 	 130.456 	 
H 	 -87.9889 	 53.6544 	 130.318 	 
H 	 -86.4168 	 53.6113 	 129.549 	 
C 	 -86.3317 	 53.9559 	 131.687 	 
H 	 -86.6115 	 54.9832 	 131.69 	 
H 	 -85.2457 	 53.9273 	 131.614 	 
C 	 -86.6097 	 53.3225 	 133.043 	 
H 	 -86.1887 	 52.2631 	 133.175 	 
H 	 -87.7182 	 53.2479 	 133.081 	 
H 	 -86.3697 	 53.9845 	 133.826 	 
H 	 -91.9305 	 49.41 	 132.909 	 
H 	 -84.6267 	 49.1906 	 129.461 	 
