34

S 	 6.69729 	 -29.236 	 80.7204 	 
C 	 6.90604 	 -29.5171 	 82.4361 	 
C 	 7.60046 	 -28.4845 	 83.0646 	 
C 	 7.8487 	 -27.4313 	 82.1074 	 
C 	 7.48713 	 -27.7277 	 80.8159 	 
H 	 8.10037 	 -26.4426 	 82.3732 	 
C 	 8.02613 	 -28.3527 	 84.5278 	 
H 	 8.97599 	 -27.8587 	 84.4912 	 
H 	 8.25903 	 -29.3471 	 84.8983 	 
C 	 7.01643 	 -27.655 	 85.462 	 
H 	 7.57149 	 -27.2828 	 86.3055 	 
H 	 6.80961 	 -26.7729 	 84.9044 	 
C 	 5.77767 	 -28.4649 	 85.9573 	 
H 	 5.01496 	 -28.6065 	 85.1622 	 
H 	 6.00818 	 -29.5005 	 86.3756 	 
H 	 5.38431 	 -27.9062 	 86.8432 	 
S 	 5.97404 	 -26.2246 	 79.0864 	 
C 	 6.74106 	 -25.2509 	 77.8742 	 
C 	 8.10082 	 -25.253 	 78.0617 	 
C 	 8.57671 	 -26.0801 	 79.0888 	 
C 	 7.51864 	 -26.7094 	 79.7408 	 
H 	 8.71195 	 -24.6868 	 77.3485 	 
C 	 10.0223 	 -26.5061 	 79.229 	 
H 	 10.3712 	 -26.923 	 78.2823 	 
H 	 10.2059 	 -27.2817 	 80.0057 	 
C 	 10.9547 	 -25.4036 	 79.7575 	 
H 	 10.4113 	 -25.0218 	 80.6039 	 
H 	 10.9858 	 -24.6182 	 79.0027 	 
C 	 12.3983 	 -25.8411 	 80.1039 	 
H 	 13.0545 	 -25.5987 	 79.3183 	 
H 	 12.4195 	 -26.9002 	 80.3741 	 
H 	 12.8714 	 -25.4003 	 80.9761 	 
H 	 6.54082 	 -30.3492 	 83.0669 	 
H 	 6.19172 	 -24.7998 	 77.0172 	 
