34

S 	 -42.2963 	 33.1485 	 81.6457 	 
C 	 -41.5249 	 32.5876 	 80.2033 	 
C 	 -40.2861 	 33.0709 	 80.0754 	 
C 	 -39.9389 	 34.0523 	 81.0756 	 
C 	 -40.9139 	 34.1895 	 82.0635 	 
H 	 -39.1107 	 34.7637 	 81.1211 	 
C 	 -39.4517 	 32.8502 	 78.7867 	 
H 	 -39.1984 	 33.7722 	 78.3239 	 
H 	 -39.9682 	 32.2655 	 78.0162 	 
C 	 -38.117 	 32.1884 	 79.0096 	 
H 	 -37.6619 	 32.6001 	 79.8985 	 
H 	 -38.3812 	 31.1512 	 79.3014 	 
C 	 -37.281 	 32.0748 	 77.7532 	 
H 	 -37.0317 	 33.0408 	 77.37 	 
H 	 -36.3034 	 31.6292 	 78.0009 	 
H 	 -37.7077 	 31.4802 	 76.9429 	 
S 	 -40.9899 	 34.1765 	 84.7631 	 
C 	 -40.9859 	 35.655 	 85.6579 	 
C 	 -40.7178 	 36.7382 	 84.8492 	 
C 	 -40.5878 	 36.3999 	 83.4814 	 
C 	 -40.9033 	 35.0418 	 83.2714 	 
H 	 -40.4344 	 37.6446 	 85.3272 	 
C 	 -40.1029 	 37.4357 	 82.4848 	 
H 	 -39.7416 	 36.9651 	 81.5571 	 
H 	 -39.2362 	 37.983 	 82.8799 	 
C 	 -41.206 	 38.4727 	 82.0762 	 
H 	 -41.4885 	 38.9915 	 82.9205 	 
H 	 -42.0633 	 37.9299 	 81.7737 	 
C 	 -40.6216 	 39.4964 	 81.0098 	 
H 	 -41.432 	 40.2288 	 80.7173 	 
H 	 -40.3055 	 38.9801 	 80.1317 	 
H 	 -39.8772 	 39.954 	 81.5675 	 
H 	 -42.0473 	 32.0823 	 79.4434 	 
H 	 -40.9197 	 35.6783 	 86.7211 	 
