34

S 	 7.89467 	 -7.52279 	 97.7812 	 
C 	 8.91781 	 -7.78602 	 99.141 	 
C 	 10.0685 	 -7.10391 	 99.063 	 
C 	 10.022 	 -6.11419 	 98.0008 	 
C 	 8.87558 	 -6.13932 	 97.3007 	 
H 	 10.7969 	 -5.42268 	 97.665 	 
C 	 11.2759 	 -7.24865 	 99.9191 	 
H 	 12.104 	 -6.87065 	 99.2907 	 
H 	 11.626 	 -8.24386 	 100.129 	 
C 	 11.2656 	 -6.36868 	 101.198 	 
H 	 12.2987 	 -6.18914 	 101.587 	 
H 	 10.7927 	 -5.41424 	 100.894 	 
C 	 10.5165 	 -7.06679 	 102.348 	 
H 	 9.51373 	 -7.35542 	 101.901 	 
H 	 10.9771 	 -7.95226 	 102.786 	 
H 	 10.3006 	 -6.39526 	 103.113 	 
S 	 8.44078 	 -6.07928 	 94.5992 	 
C 	 7.9551 	 -4.55969 	 93.8748 	 
C 	 8.08193 	 -3.56747 	 94.7964 	 
C 	 8.35292 	 -3.93466 	 96.097 	 
C 	 8.59146 	 -5.31861 	 96.1694 	 
H 	 7.84235 	 -2.6345 	 94.3677 	 
C 	 8.54582 	 -2.90338 	 97.1986 	 
H 	 9.52483 	 -2.4201 	 97.0231 	 
H 	 8.66614 	 -3.423 	 98.1773 	 
C 	 7.4262 	 -1.84705 	 97.2767 	 
H 	 7.32276 	 -1.17071 	 96.438 	 
H 	 7.61161 	 -1.16931 	 98.1407 	 
C 	 5.98006 	 -2.42127 	 97.3644 	 
H 	 5.20476 	 -1.63799 	 97.5208 	 
H 	 5.91294 	 -3.16721 	 98.2205 	 
H 	 5.70534 	 -2.84866 	 96.4053 	 
H 	 8.84809 	 -8.43783 	 99.9879 	 
H 	 7.61434 	 -4.45402 	 92.792 	 
