34

S 	 -28.3462 	 62.8036 	 104.847 	 
C 	 -29.6894 	 63.7674 	 104.137 	 
C 	 -30.8595 	 63.4846 	 104.879 	 
C 	 -30.73 	 62.5408 	 105.9 	 
C 	 -29.3993 	 62.1379 	 106.079 	 
H 	 -31.5241 	 62.2616 	 106.572 	 
C 	 -32.1878 	 64.1948 	 104.661 	 
H 	 -32.1281 	 64.7711 	 103.704 	 
H 	 -32.2742 	 64.9077 	 105.46 	 
C 	 -33.3783 	 63.2263 	 104.546 	 
H 	 -33.0918 	 62.3376 	 103.933 	 
H 	 -33.5187 	 62.863 	 105.556 	 
C 	 -34.7444 	 63.9298 	 104.101 	 
H 	 -35.5368 	 63.1629 	 104.053 	 
H 	 -35.0599 	 64.6846 	 104.827 	 
H 	 -34.6913 	 64.4829 	 103.068 	 
S 	 -29.5987 	 61.6227 	 108.78 	 
C 	 -28.6189 	 60.3355 	 109.505 	 
C 	 -27.7708 	 59.8717 	 108.557 	 
C 	 -27.8646 	 60.456 	 107.248 	 
C 	 -28.8795 	 61.3708 	 107.172 	 
H 	 -27.0892 	 59.1211 	 108.881 	 
C 	 -26.8318 	 60.1552 	 106.214 	 
H 	 -25.95 	 59.6832 	 106.639 	 
H 	 -26.4438 	 61.1308 	 105.902 	 
C 	 -27.238 	 59.2233 	 105.064 	 
H 	 -27.9827 	 59.8275 	 104.505 	 
H 	 -27.7921 	 58.2864 	 105.277 	 
C 	 -26.2194 	 58.8916 	 103.972 	 
H 	 -25.644 	 59.6826 	 103.537 	 
H 	 -26.6645 	 58.3502 	 103.144 	 
H 	 -25.4518 	 58.2628 	 104.385 	 
H 	 -29.6036 	 64.3993 	 103.303 	 
H 	 -28.7613 	 59.9341 	 110.522 	 
