34

S 	 55.2014 	 4.26664 	 80.9872 	 
C 	 54.7323 	 2.79468 	 80.1091 	 
C 	 53.4661 	 2.37767 	 80.5049 	 
C 	 52.8216 	 3.32026 	 81.3509 	 
C 	 53.5714 	 4.37003 	 81.6675 	 
H 	 51.8533 	 3.14444 	 81.7264 	 
C 	 52.7473 	 1.17305 	 79.9834 	 
H 	 52.9935 	 1.08842 	 78.9252 	 
H 	 51.6803 	 1.25985 	 80.0664 	 
C 	 53.2394 	 -0.163443 	 80.6019 	 
H 	 52.6668 	 -0.932129 	 80.2494 	 
H 	 54.2834 	 -0.296432 	 80.262 	 
C 	 52.8976 	 -0.132875 	 82.1282 	 
H 	 51.9597 	 0.262733 	 82.47 	 
H 	 52.9921 	 -1.129 	 82.593 	 
H 	 53.5847 	 0.464179 	 82.6872 	 
S 	 54.5181 	 6.41837 	 83.3415 	 
C 	 53.2719 	 7.24958 	 84.334 	 
C 	 52.0206 	 6.90315 	 83.9926 	 
C 	 51.9829 	 5.9982 	 82.9077 	 
C 	 53.1929 	 5.45893 	 82.576 	 
H 	 51.2567 	 7.49129 	 84.4831 	 
C 	 50.681 	 5.59894 	 82.2499 	 
H 	 50.975 	 5.28483 	 81.2157 	 
H 	 50.1272 	 6.4401 	 82.1463 	 
C 	 49.8521 	 4.61272 	 83.1139 	 
H 	 49.7845 	 5.09901 	 84.0666 	 
H 	 50.3757 	 3.74836 	 83.357 	 
C 	 48.5279 	 4.15621 	 82.4776 	 
H 	 48.6366 	 3.6742 	 81.4707 	 
H 	 47.9045 	 4.99376 	 82.322 	 
H 	 47.8406 	 3.53435 	 83.1214 	 
H 	 55.3451 	 2.132 	 79.5661 	 
H 	 53.3215 	 7.82914 	 85.2122 	 
