34

S 	 34.1972 	 17.1833 	 50.5426 	 
C 	 35.295 	 18.6108 	 50.7258 	 
C 	 36.4953 	 18.1941 	 51.1872 	 
C 	 36.665 	 16.7478 	 51.0402 	 
C 	 35.5401 	 16.1012 	 50.5842 	 
H 	 37.4693 	 16.1201 	 51.2382 	 
C 	 37.5948 	 19.1238 	 51.6344 	 
H 	 38.0343 	 19.6531 	 50.7748 	 
H 	 38.4772 	 18.5387 	 52.028 	 
C 	 37.051 	 20.2279 	 52.5991 	 
H 	 36.3428 	 20.8893 	 52.02 	 
H 	 36.4432 	 19.7574 	 53.3266 	 
C 	 38.2009 	 20.8963 	 53.3662 	 
H 	 38.69 	 21.5367 	 52.6916 	 
H 	 37.8409 	 21.4434 	 54.2947 	 
H 	 38.8829 	 20.1707 	 53.7936 	 
S 	 34.0538 	 13.8382 	 51.001 	 
C 	 34.6364 	 12.3153 	 50.3697 	 
C 	 35.7762 	 12.4414 	 49.6087 	 
C 	 36.4091 	 13.7265 	 49.7524 	 
C 	 35.5481 	 14.6401 	 50.4569 	 
H 	 36.201 	 11.5912 	 49.1495 	 
C 	 37.7752 	 14.0628 	 49.1209 	 
H 	 38.5529 	 13.3448 	 49.3621 	 
H 	 38.2222 	 15.0052 	 49.4539 	 
C 	 37.6474 	 14.0748 	 47.5647 	 
H 	 37.4085 	 13.0732 	 47.2476 	 
H 	 38.5126 	 14.3858 	 47.07 	 
C 	 36.5337 	 14.9195 	 47.066 	 
H 	 36.6334 	 14.9737 	 45.938 	 
H 	 36.7451 	 15.9084 	 47.4971 	 
H 	 35.54 	 14.5639 	 47.4399 	 
H 	 34.951 	 19.5979 	 50.5372 	 
H 	 34.1378 	 11.3078 	 50.4484 	 
