34

S 	 -42.3486 	 34.7179 	 81.7108 	 
C 	 -43.2548 	 34.0475 	 80.3782 	 
C 	 -43.7746 	 32.8363 	 80.6475 	 
C 	 -43.442 	 32.4241 	 82.0159 	 
C 	 -42.5268 	 33.2527 	 82.6806 	 
H 	 -43.64 	 31.4073 	 82.3053 	 
C 	 -44.5334 	 32.1007 	 79.5999 	 
H 	 -43.6862 	 31.6948 	 78.9858 	 
H 	 -44.9515 	 32.6821 	 78.7722 	 
C 	 -45.5895 	 31.0663 	 80.0801 	 
H 	 -45.8561 	 30.5374 	 79.1801 	 
H 	 -44.9996 	 30.3584 	 80.6574 	 
C 	 -46.8381 	 31.6793 	 80.8553 	 
H 	 -47.518 	 30.8909 	 81.0427 	 
H 	 -46.5293 	 32.0003 	 81.8941 	 
H 	 -47.3809 	 32.4549 	 80.2909 	 
S 	 -41.9517 	 34.6597 	 84.9018 	 
C 	 -41.5563 	 33.8065 	 86.3781 	 
C 	 -41.2643 	 32.4453 	 86.18 	 
C 	 -41.6388 	 31.9766 	 84.8399 	 
C 	 -41.9522 	 33.0963 	 84.0054 	 
H 	 -41.0809 	 31.7755 	 86.9247 	 
C 	 -41.6459 	 30.5236 	 84.4517 	 
H 	 -40.6992 	 30.0539 	 84.7784 	 
H 	 -41.4998 	 30.448 	 83.3458 	 
C 	 -42.9322 	 29.7544 	 84.8677 	 
H 	 -43.7832 	 30.0797 	 84.3421 	 
H 	 -43.0371 	 29.9453 	 85.8984 	 
C 	 -42.8681 	 28.3315 	 84.5502 	 
H 	 -42.1019 	 27.8918 	 85.1717 	 
H 	 -42.7045 	 28.2662 	 83.4268 	 
H 	 -43.8296 	 27.8512 	 84.6955 	 
H 	 -43.3722 	 34.5629 	 79.4087 	 
H 	 -41.5312 	 34.2147 	 87.3243 	 
