34

S 	 -23.5582 	 46.7133 	 60.2068 	 
C 	 -23.8818 	 48.4134 	 60.5796 	 
C 	 -24.1185 	 49.0947 	 59.3982 	 
C 	 -24.3116 	 48.229 	 58.3066 	 
C 	 -24.2206 	 46.8638 	 58.5647 	 
H 	 -24.4485 	 48.68 	 57.3464 	 
C 	 -24.3714 	 50.6052 	 59.3372 	 
H 	 -23.8799 	 50.9526 	 58.5047 	 
H 	 -23.8642 	 51.0118 	 60.1696 	 
C 	 -25.8969 	 51.0658 	 59.5773 	 
H 	 -25.9343 	 52.185 	 59.538 	 
H 	 -26.7156 	 50.6814 	 58.9003 	 
C 	 -26.3674 	 50.7948 	 61.0196 	 
H 	 -27.3358 	 51.2321 	 61.2565 	 
H 	 -26.4987 	 49.688 	 61.1982 	 
H 	 -25.5453 	 51.1817 	 61.623 	 
S 	 -23.1945 	 44.5298 	 57.5675 	 
C 	 -23.8533 	 43.7934 	 56.1632 	 
C 	 -25.0316 	 44.3835 	 55.8229 	 
C 	 -25.2978 	 45.6557 	 56.5322 	 
C 	 -24.4095 	 45.8284 	 57.5523 	 
H 	 -25.4754 	 44.0307 	 54.8819 	 
C 	 -26.3459 	 46.6433 	 56.1618 	 
H 	 -26.9105 	 46.2847 	 55.3184 	 
H 	 -25.8216 	 47.4949 	 55.9578 	 
C 	 -27.528 	 46.9048 	 57.1773 	 
H 	 -28.2989 	 47.5289 	 56.8231 	 
H 	 -27.1305 	 47.3281 	 58.2041 	 
C 	 -28.43 	 45.6689 	 57.4976 	 
H 	 -29.1807 	 45.5854 	 56.7373 	 
H 	 -28.9507 	 45.9062 	 58.3979 	 
H 	 -27.8509 	 44.7241 	 57.5443 	 
H 	 -23.5529 	 48.8912 	 61.5038 	 
H 	 -23.285 	 43.1426 	 55.5229 	 
