34

S 	 -91.2406 	 59.8666 	 126.281 	 
C 	 -90.524 	 59.0253 	 127.627 	 
C 	 -90.338 	 57.6678 	 127.367 	 
C 	 -90.5091 	 57.4247 	 125.941 	 
C 	 -91.081 	 58.4676 	 125.237 	 
H 	 -90.3055 	 56.4806 	 125.421 	 
C 	 -89.9844 	 56.5874 	 128.366 	 
H 	 -90.9184 	 56.0002 	 128.259 	 
H 	 -89.8109 	 57.0596 	 129.35 	 
C 	 -88.6939 	 55.8128 	 128 	 
H 	 -88.8878 	 55.2745 	 127.091 	 
H 	 -87.7994 	 56.4334 	 127.739 	 
C 	 -88.354 	 54.6337 	 129.059 	 
H 	 -89.3001 	 54.0779 	 129.316 	 
H 	 -87.5727 	 53.9592 	 128.695 	 
H 	 -88.0797 	 55.0345 	 129.99 	 
S 	 -90.8555 	 59.515 	 122.668 	 
C 	 -91.7697 	 58.6816 	 121.389 	 
C 	 -92.2953 	 57.488 	 121.835 	 
C 	 -92.2575 	 57.3996 	 123.287 	 
C 	 -91.5724 	 58.4398 	 123.86 	 
H 	 -92.8498 	 56.7867 	 121.152 	 
C 	 -93.0857 	 56.2412 	 123.912 	 
H 	 -94.1546 	 56.327 	 123.647 	 
H 	 -93.1437 	 56.3819 	 124.983 	 
C 	 -92.6545 	 54.8295 	 123.534 	 
H 	 -91.609 	 54.6976 	 123.807 	 
H 	 -92.7047 	 54.7472 	 122.497 	 
C 	 -93.4986 	 53.8375 	 124.264 	 
H 	 -93.3421 	 53.8208 	 125.341 	 
H 	 -93.298 	 52.8241 	 123.953 	 
H 	 -94.5171 	 54.0836 	 124.247 	 
H 	 -90.3731 	 59.5397 	 128.584 	 
H 	 -91.7603 	 59.1999 	 120.383 	 
