34

S 	 3.10763 	 -21.79 	 58.1977 	 
C 	 2.57655 	 -23.4029 	 58.7585 	 
C 	 3.57787 	 -24.2977 	 58.8671 	 
C 	 4.84539 	 -23.7597 	 58.4679 	 
C 	 4.77604 	 -22.3929 	 58.029 	 
H 	 5.77682 	 -24.2611 	 58.31 	 
C 	 3.42265 	 -25.7268 	 59.3675 	 
H 	 2.7902 	 -26.4222 	 58.76 	 
H 	 2.88632 	 -25.5806 	 60.3203 	 
C 	 4.71519 	 -26.431 	 59.7533 	 
H 	 5.39112 	 -26.5588 	 58.8661 	 
H 	 5.10691 	 -25.7176 	 60.4921 	 
C 	 4.54131 	 -27.7911 	 60.4247 	 
H 	 5.33462 	 -27.9282 	 61.1464 	 
H 	 3.54415 	 -27.768 	 60.93 	 
H 	 4.49934 	 -28.5856 	 59.7391 	 
S 	 5.4658 	 -20.2669 	 56.3513 	 
C 	 7.04942 	 -19.6024 	 56.5225 	 
C 	 7.83664 	 -20.2645 	 57.4 	 
C 	 7.19316 	 -21.4087 	 58.0071 	 
C 	 5.89952 	 -21.5449 	 57.5528 	 
H 	 8.88113 	 -20.0062 	 57.5749 	 
C 	 7.97781 	 -22.307 	 59.0092 	 
H 	 7.41852 	 -23.2179 	 59.2449 	 
H 	 8.14997 	 -21.6988 	 59.91 	 
C 	 9.25987 	 -22.9298 	 58.6045 	 
H 	 9.57225 	 -23.606 	 59.438 	 
H 	 10.1773 	 -22.3032 	 58.6918 	 
C 	 9.30996 	 -23.583 	 57.1933 	 
H 	 10.1095 	 -24.3249 	 57.1865 	 
H 	 9.66782 	 -22.8908 	 56.3698 	 
H 	 8.37728 	 -24.1902 	 57.1007 	 
H 	 1.55545 	 -23.5888 	 59.0165 	 
H 	 7.51134 	 -18.9126 	 55.9026 	 
