34

S 	 -48.3083 	 63.3435 	 140.344 	 
C 	 -46.9962 	 62.8374 	 141.303 	 
C 	 -46.3296 	 63.9146 	 141.905 	 
C 	 -46.8742 	 65.1572 	 141.585 	 
C 	 -47.8959 	 65.047 	 140.668 	 
H 	 -46.467 	 66.1091 	 142.029 	 
C 	 -45.0235 	 63.8576 	 142.691 	 
H 	 -44.6413 	 62.8794 	 142.573 	 
H 	 -45.3242 	 63.9081 	 143.758 	 
C 	 -43.8889 	 64.777 	 142.386 	 
H 	 -43.3625 	 64.3411 	 141.56 	 
H 	 -44.2969 	 65.7863 	 142.19 	 
C 	 -42.8771 	 64.8466 	 143.596 	 
H 	 -42.5826 	 63.864 	 143.929 	 
H 	 -41.944 	 65.4242 	 143.436 	 
H 	 -43.3081 	 65.3252 	 144.482 	 
S 	 -50.423 	 65.6495 	 140.079 	 
C 	 -50.9608 	 67.3002 	 139.605 	 
C 	 -49.8351 	 68.044 	 139.392 	 
C 	 -48.6742 	 67.4552 	 139.94 	 
C 	 -48.8296 	 66.1202 	 140.363 	 
H 	 -49.9713 	 69.0398 	 139.018 	 
C 	 -47.376 	 68.2054 	 139.905 	 
H 	 -47.4156 	 68.8012 	 139.007 	 
H 	 -46.6236 	 67.4205 	 139.821 	 
C 	 -47.2671 	 69.1251 	 141.144 	 
H 	 -47.6092 	 68.6784 	 142.081 	 
H 	 -47.8144 	 70.0826 	 140.958 	 
C 	 -45.7767 	 69.4259 	 141.336 	 
H 	 -45.1662 	 68.5119 	 141.565 	 
H 	 -45.6776 	 70.0823 	 142.195 	 
H 	 -45.3246 	 69.9625 	 140.548 	 
H 	 -46.7491 	 61.8267 	 141.368 	 
H 	 -51.8597 	 67.5789 	 139.052 	 
