34

S 	 -2.32264 	 -18.2038 	 91.5234 	 
C 	 -2.48355 	 -16.7785 	 90.4624 	 
C 	 -1.36321 	 -16.543 	 89.7263 	 
C 	 -0.453038 	 -17.6308 	 89.7914 	 
C 	 -0.885575 	 -18.6923 	 90.5747 	 
H 	 0.48405 	 -17.7291 	 89.1962 	 
C 	 -0.94167 	 -15.299 	 88.935 	 
H 	 0.0211337 	 -15.0746 	 89.369 	 
H 	 -1.52651 	 -14.444 	 89.2707 	 
C 	 -0.975993 	 -15.3883 	 87.4664 	 
H 	 -0.702242 	 -16.3462 	 87.1701 	 
H 	 -2.00578 	 -15.3812 	 87.1932 	 
C 	 -0.184004 	 -14.306 	 86.7609 	 
H 	 -0.520246 	 -13.2701 	 86.9133 	 
H 	 0.858656 	 -14.4137 	 86.9485 	 
H 	 -0.45244 	 -14.5533 	 85.7407 	 
S 	 0.261868 	 -20.4169 	 92.399 	 
C 	 0.850972 	 -21.9407 	 91.8489 	 
C 	 0.819556 	 -22.0711 	 90.4814 	 
C 	 0.203121 	 -20.9152 	 89.8044 	 
C 	 -0.26587 	 -19.9623 	 90.7287 	 
H 	 1.08362 	 -23.0216 	 90.158 	 
C 	 -0.00423117 	 -20.9521 	 88.3327 	 
H 	 -0.883936 	 -20.2949 	 88.1139 	 
H 	 -0.427831 	 -21.9042 	 88.0109 	 
C 	 1.20681 	 -20.6439 	 87.5235 	 
H 	 2.04563 	 -21.3346 	 87.7368 	 
H 	 1.50238 	 -19.6358 	 87.7504 	 
C 	 0.883981 	 -20.8068 	 86.0043 	 
H 	 0.0772365 	 -20.074 	 85.6713 	 
H 	 0.675383 	 -21.7785 	 85.5995 	 
H 	 1.73824 	 -20.3396 	 85.3995 	 
H 	 -3.40921 	 -16.1035 	 90.4108 	 
H 	 1.23731 	 -22.7381 	 92.554 	 
