34

S 	 50.2721 	 11.1099 	 86.576 	 
C 	 50.141 	 11.7663 	 88.1893 	 
C 	 50.5347 	 13.1167 	 88.2429 	 
C 	 51.0499 	 13.5374 	 86.9758 	 
C 	 50.851 	 12.6253 	 85.9592 	 
H 	 51.6126 	 14.4429 	 86.8026 	 
C 	 50.5146 	 13.991 	 89.5022 	 
H 	 51.4389 	 14.5224 	 89.4614 	 
H 	 50.5588 	 13.3394 	 90.4139 	 
C 	 49.3022 	 14.9479 	 89.5205 	 
H 	 49.5182 	 15.6997 	 90.2494 	 
H 	 49.1078 	 15.3994 	 88.5447 	 
C 	 48.1052 	 14.1728 	 90.0039 	 
H 	 48.2721 	 13.7843 	 91.0346 	 
H 	 47.3165 	 14.8344 	 90.0822 	 
H 	 47.8896 	 13.3642 	 89.3613 	 
S 	 52.3509 	 11.3614 	 83.9517 	 
C 	 52.6879 	 12.2546 	 82.5368 	 
C 	 51.9548 	 13.4048 	 82.3872 	 
C 	 51.1737 	 13.6145 	 83.5919 	 
C 	 51.4219 	 12.7332 	 84.6203 	 
H 	 52.1461 	 14.041 	 81.5139 	 
C 	 50.2401 	 14.7422 	 83.7575 	 
H 	 50.3253 	 15.4166 	 82.9029 	 
H 	 50.6334 	 15.4336 	 84.4999 	 
C 	 48.7863 	 14.2402 	 83.9381 	 
H 	 48.6584 	 13.6608 	 84.8457 	 
H 	 48.6056 	 13.5976 	 83.135 	 
C 	 47.7197 	 15.3758 	 83.9803 	 
H 	 48.0617 	 16.1389 	 84.6653 	 
H 	 46.7029 	 15.1131 	 84.2884 	 
H 	 47.5727 	 15.8849 	 83.0096 	 
H 	 49.7872 	 11.262 	 89.029 	 
H 	 53.4861 	 11.9985 	 81.8546 	 
