34

S 	 -38.9383 	 29.6841 	 91.6044 	 
C 	 -39.3446 	 28.6883 	 92.8945 	 
C 	 -40.4027 	 27.8888 	 92.544 	 
C 	 -40.8347 	 28.0757 	 91.1522 	 
C 	 -40.2507 	 29.1834 	 90.5785 	 
H 	 -41.5611 	 27.5057 	 90.5697 	 
C 	 -40.9184 	 26.7765 	 93.3982 	 
H 	 -40.0933 	 26.0551 	 93.5344 	 
H 	 -41.6829 	 26.1608 	 92.8911 	 
C 	 -41.4691 	 27.2253 	 94.76 	 
H 	 -41.6796 	 26.2938 	 95.2536 	 
H 	 -40.7241 	 27.7303 	 95.3908 	 
C 	 -42.6623 	 28.1531 	 94.6148 	 
H 	 -42.606 	 28.9142 	 93.82 	 
H 	 -43.4714 	 27.607 	 94.2525 	 
H 	 -42.9833 	 28.5356 	 95.5451 	 
S 	 -41.9101 	 30.3359 	 88.7509 	 
C 	 -41.4766 	 30.5866 	 87.0753 	 
C 	 -40.1152 	 30.3549 	 86.9514 	 
C 	 -39.5405 	 29.6581 	 88.1139 	 
C 	 -40.4208 	 29.6393 	 89.1623 	 
H 	 -39.5695 	 30.3404 	 86.0104 	 
C 	 -38.1353 	 29.0751 	 88.1044 	 
H 	 -38.0038 	 28.4646 	 87.1566 	 
H 	 -37.955 	 28.3524 	 88.8346 	 
C 	 -37.0089 	 30.1563 	 88.3463 	 
H 	 -36.11 	 29.6852 	 88.7616 	 
H 	 -37.2428 	 30.7738 	 89.2047 	 
C 	 -36.6569 	 31.1226 	 87.1658 	 
H 	 -35.7751 	 31.7174 	 87.4762 	 
H 	 -37.4384 	 31.9428 	 87.0592 	 
H 	 -36.4163 	 30.5014 	 86.2951 	 
H 	 -38.7464 	 28.4452 	 93.6897 	 
H 	 -42.0844 	 30.8611 	 86.2139 	 
