34

S 	 8.75711 	 23.4612 	 54.774 	 
C 	 9.88558 	 22.8149 	 53.6793 	 
C 	 9.88241 	 21.4397 	 53.6367 	 
C 	 8.9603 	 20.8961 	 54.5726 	 
C 	 8.3176 	 21.8822 	 55.2865 	 
H 	 8.76837 	 19.8177 	 54.8163 	 
C 	 10.9324 	 20.6831 	 52.9063 	 
H 	 11.4566 	 21.4701 	 52.251 	 
H 	 10.367 	 20.0685 	 52.2922 	 
C 	 12.048 	 20.0239 	 53.7601 	 
H 	 12.7864 	 19.7554 	 53.0469 	 
H 	 12.5022 	 20.6691 	 54.497 	 
C 	 11.5187 	 18.7214 	 54.4659 	 
H 	 12.3645 	 18.1997 	 54.8708 	 
H 	 10.7379 	 18.9339 	 55.2676 	 
H 	 10.9683 	 18.159 	 53.6723 	 
S 	 7.16456 	 23.3111 	 57.362 	 
C 	 6.01952 	 22.5905 	 58.4674 	 
C 	 5.91539 	 21.2362 	 58.2622 	 
C 	 6.68694 	 20.8023 	 57.1777 	 
C 	 7.38677 	 21.7973 	 56.4815 	 
H 	 5.42514 	 20.6024 	 58.9499 	 
C 	 6.6619 	 19.3334 	 56.7652 	 
H 	 6.7043 	 19.235 	 55.7557 	 
H 	 5.74848 	 18.8678 	 57.0281 	 
C 	 7.78157 	 18.4729 	 57.2631 	 
H 	 7.94236 	 18.5661 	 58.2939 	 
H 	 8.68572 	 18.7947 	 56.7185 	 
C 	 7.71707 	 16.9531 	 57.0272 	 
H 	 7.92268 	 16.8057 	 55.9798 	 
H 	 6.87265 	 16.328 	 57.2988 	 
H 	 8.59442 	 16.5343 	 57.5641 	 
H 	 10.3926 	 23.4548 	 52.9981 	 
H 	 5.55104 	 23.1558 	 59.2986 	 
