34

S 	 -109.759 	 42.1349 	 132.612 	 
C 	 -108.804 	 42.6411 	 133.957 	 
C 	 -107.745 	 43.458 	 133.608 	 
C 	 -107.876 	 43.8391 	 132.238 	 
C 	 -108.936 	 43.2372 	 131.554 	 
H 	 -107.229 	 44.5298 	 131.736 	 
C 	 -106.666 	 44.0131 	 134.564 	 
H 	 -106.807 	 43.6155 	 135.566 	 
H 	 -106.713 	 45.0414 	 134.667 	 
C 	 -105.238 	 43.4785 	 134.332 	 
H 	 -104.704 	 43.7573 	 135.235 	 
H 	 -105.129 	 42.4031 	 134.265 	 
C 	 -104.495 	 44.142 	 133.162 	 
H 	 -104.722 	 43.7236 	 132.162 	 
H 	 -104.796 	 45.1832 	 133.077 	 
H 	 -103.45 	 44.1504 	 133.22 	 
S 	 -109.534 	 44.5723 	 129.231 	 
C 	 -109.388 	 43.757 	 127.685 	 
C 	 -108.76 	 42.5221 	 127.922 	 
C 	 -108.638 	 42.1277 	 129.288 	 
C 	 -108.969 	 43.1482 	 130.148 	 
H 	 -108.476 	 41.7807 	 127.164 	 
C 	 -108.061 	 40.7516 	 129.75 	 
H 	 -107.771 	 40.3587 	 128.74 	 
H 	 -108.878 	 40.3064 	 130.346 	 
C 	 -106.756 	 40.6977 	 130.592 	 
H 	 -106.633 	 39.6867 	 131.017 	 
H 	 -106.806 	 41.2692 	 131.538 	 
C 	 -105.476 	 41.0534 	 129.868 	 
H 	 -105.239 	 40.3788 	 129.085 	 
H 	 -104.589 	 41.0979 	 130.545 	 
H 	 -105.48 	 42.0521 	 129.442 	 
H 	 -108.795 	 42.1834 	 134.911 	 
H 	 -109.718 	 44.1626 	 126.717 	 
