34

S 	 12.3533 	 -7.25853 	 67.3136 	 
C 	 10.6984 	 -6.68158 	 67.6354 	 
C 	 9.71354 	 -7.61968 	 67.3857 	 
C 	 10.2472 	 -8.81572 	 66.7552 	 
C 	 11.604 	 -8.73019 	 66.5909 	 
H 	 9.72582 	 -9.71923 	 66.4828 	 
C 	 8.29785 	 -7.6128 	 67.7674 	 
H 	 7.90388 	 -8.62023 	 67.5108 	 
H 	 7.76773 	 -6.84906 	 67.1705 	 
C 	 8.1598 	 -7.37726 	 69.307 	 
H 	 9.12626 	 -7.75423 	 69.7747 	 
H 	 8.11458 	 -6.36392 	 69.652 	 
C 	 6.95393 	 -8.00596 	 69.8677 	 
H 	 6.9211 	 -7.78605 	 70.9756 	 
H 	 6.05356 	 -7.68099 	 69.3973 	 
H 	 6.889 	 -9.03468 	 69.7024 	 
S 	 12.7587 	 -11.2564 	 66.7217 	 
C 	 13.8504 	 -11.6107 	 65.3666 	 
C 	 13.853 	 -10.6488 	 64.3595 	 
C 	 13.0648 	 -9.50305 	 64.6923 	 
C 	 12.3912 	 -9.74192 	 65.8431 	 
H 	 14.3554 	 -10.786 	 63.4282 	 
C 	 12.7391 	 -8.4488 	 63.6653 	 
H 	 11.9309 	 -7.83697 	 64.0258 	 
H 	 12.3126 	 -8.92228 	 62.8003 	 
C 	 13.8373 	 -7.41174 	 63.326 	 
H 	 14.7833 	 -7.84453 	 63.5954 	 
H 	 13.7268 	 -6.5338 	 64.0234 	 
C 	 14.0155 	 -6.80825 	 61.9205 	 
H 	 14.9176 	 -6.18354 	 61.8551 	 
H 	 13.0585 	 -6.29184 	 61.7219 	 
H 	 14.2373 	 -7.61434 	 61.2386 	 
H 	 10.6142 	 -5.9632 	 68.4413 	 
H 	 14.3197 	 -12.5957 	 65.2905 	 
