34

S 	 -49.7081 	 33.2832 	 95.8967 	 
C 	 -49.119 	 34.9121 	 95.3696 	 
C 	 -48.7927 	 35.6645 	 96.4708 	 
C 	 -48.6646 	 34.8443 	 97.6542 	 
C 	 -49.1512 	 33.5507 	 97.5867 	 
H 	 -48.3394 	 35.3373 	 98.5907 	 
C 	 -48.5071 	 37.1378 	 96.4683 	 
H 	 -47.4382 	 37.357 	 96.3648 	 
H 	 -48.9056 	 37.5224 	 97.4764 	 
C 	 -49.3106 	 37.9616 	 95.4042 	 
H 	 -48.8298 	 38.9386 	 95.4317 	 
H 	 -49.0567 	 37.5862 	 94.3746 	 
C 	 -50.7631 	 37.9209 	 95.8024 	 
H 	 -50.9471 	 38.1545 	 96.8881 	 
H 	 -51.3357 	 38.5594 	 95.1358 	 
H 	 -51.0858 	 36.8692 	 95.6126 	 
S 	 -48.6723 	 30.9472 	 98.3003 	 
C 	 -48.5817 	 30.553 	 99.9781 	 
C 	 -49.0723 	 31.5512 	 100.749 	 
C 	 -49.4566 	 32.7255 	 100.05 	 
C 	 -49.3155 	 32.5611 	 98.6525 	 
H 	 -49.1897 	 31.404 	 101.784 	 
C 	 -50.03 	 33.9558 	 100.847 	 
H 	 -51.0685 	 33.7491 	 100.78 	 
H 	 -49.8302 	 34.8261 	 100.188 	 
C 	 -49.4338 	 34.3367 	 102.22 	 
H 	 -49.5412 	 33.5178 	 102.917 	 
H 	 -50.0326 	 35.2644 	 102.513 	 
C 	 -47.8978 	 34.5562 	 102.277 	 
H 	 -47.5209 	 35.1041 	 103.173 	 
H 	 -47.4492 	 35.0477 	 101.405 	 
H 	 -47.441 	 33.5082 	 102.27 	 
H 	 -49.0846 	 35.3186 	 94.3489 	 
H 	 -48.1593 	 29.6287 	 100.384 	 
