34

S 	 18.4457 	 3.1389 	 71.8032 	 
C 	 19.0932 	 2.47171 	 70.3743 	 
C 	 20.3516 	 2.99524 	 70.0991 	 
C 	 20.8039 	 3.9549 	 71.0592 	 
C 	 19.8996 	 4.14216 	 72.0398 	 
H 	 21.7907 	 4.36672 	 71.0753 	 
C 	 21.2699 	 2.48227 	 69.004 	 
H 	 21.7719 	 3.28991 	 68.563 	 
H 	 20.658 	 2.05416 	 68.2396 	 
C 	 22.3801 	 1.49757 	 69.5456 	 
H 	 23.1856 	 1.39687 	 68.7666 	 
H 	 22.8505 	 2.08675 	 70.3845 	 
C 	 21.9248 	 0.166886 	 70.1353 	 
H 	 22.7608 	 -0.542073 	 70.0407 	 
H 	 21.6732 	 0.214837 	 71.113 	 
H 	 21.0513 	 -0.295986 	 69.6379 	 
S 	 19.6001 	 4.04872 	 74.8679 	 
C 	 20.1241 	 5.43624 	 75.6991 	 
C 	 20.6661 	 6.36827 	 74.8482 	 
C 	 20.7561 	 5.98441 	 73.4881 	 
C 	 20.0022 	 4.83491 	 73.2994 	 
H 	 20.9409 	 7.30761 	 75.2669 	 
C 	 21.3916 	 6.93644 	 72.4523 	 
H 	 22.1382 	 6.4776 	 71.8345 	 
H 	 21.868 	 7.75686 	 72.9886 	 
C 	 20.3656 	 7.49969 	 71.4829 	 
H 	 19.9331 	 6.695 	 70.8641 	 
H 	 20.8458 	 8.2545 	 70.8771 	 
C 	 19.2404 	 8.28075 	 72.2222 	 
H 	 19.651 	 9.14941 	 72.7595 	 
H 	 18.8504 	 7.63442 	 73.0593 	 
H 	 18.4185 	 8.62326 	 71.5174 	 
H 	 18.6598 	 1.64589 	 69.8383 	 
H 	 19.9152 	 5.70058 	 76.7549 	 
