34

S 	 0.984802 	 -8.02342 	 90.7805 	 
C 	 -0.569724 	 -8.35456 	 91.5328 	 
C 	 -1.08378 	 -9.56099 	 91.0966 	 
C 	 -0.286874 	 -10.214 	 90.142 	 
C 	 0.825627 	 -9.54528 	 89.8445 	 
H 	 -0.584912 	 -11.0913 	 89.5222 	 
C 	 -2.46809 	 -10.1088 	 91.4765 	 
H 	 -2.48549 	 -10.2121 	 92.5331 	 
H 	 -2.60656 	 -11.0914 	 91.1274 	 
C 	 -3.61606 	 -9.26056 	 91.0855 	 
H 	 -3.25968 	 -8.20288 	 91.3382 	 
H 	 -3.83039 	 -9.36172 	 89.9918 	 
C 	 -4.89281 	 -9.60671 	 91.8627 	 
H 	 -5.60079 	 -8.84927 	 91.6708 	 
H 	 -5.22113 	 -10.6427 	 91.728 	 
H 	 -4.78569 	 -9.60323 	 92.9072 	 
S 	 2.68225 	 -8.53072 	 88.1584 	 
C 	 3.66373 	 -9.59516 	 87.05 	 
C 	 3.46055 	 -10.9172 	 87.4071 	 
C 	 2.42795 	 -11.0573 	 88.4418 	 
C 	 1.85705 	 -9.88195 	 88.9255 	 
H 	 4.01523 	 -11.7262 	 86.9211 	 
C 	 2.08851 	 -12.3374 	 89.0173 	 
H 	 1.39613 	 -12.7522 	 88.347 	 
H 	 1.54061 	 -12.1661 	 89.9565 	 
C 	 3.31419 	 -13.3197 	 89.3235 	 
H 	 4.24597 	 -12.7037 	 89.5096 	 
H 	 3.60713 	 -13.8192 	 88.4071 	 
C 	 3.06167 	 -14.4056 	 90.4313 	 
H 	 2.76593 	 -15.3801 	 90.1579 	 
H 	 2.39715 	 -14.1068 	 91.172 	 
H 	 4.02286 	 -14.4867 	 90.9559 	 
H 	 -0.981807 	 -7.82979 	 92.4197 	 
H 	 4.45278 	 -9.34941 	 86.4 	 
