34

S 	 -20.7154 	 0.692933 	 77.2529 	 
C 	 -19.9406 	 0.383309 	 75.7409 	 
C 	 -20.6758 	 0.681675 	 74.667 	 
C 	 -21.8429 	 1.3668 	 75.05 	 
C 	 -22.0109 	 1.45877 	 76.433 	 
H 	 -22.5685 	 1.81765 	 74.366 	 
C 	 -20.3661 	 0.29246 	 73.239 	 
H 	 -21.306 	 0.166345 	 72.7237 	 
H 	 -19.8581 	 -0.66877 	 73.3095 	 
C 	 -19.5239 	 1.28488 	 72.4206 	 
H 	 -18.4781 	 1.39425 	 72.8421 	 
H 	 -19.3398 	 0.845332 	 71.4512 	 
C 	 -20.1369 	 2.7084 	 72.2307 	 
H 	 -21.2539 	 2.70862 	 72.1312 	 
H 	 -19.8042 	 3.28768 	 73.0711 	 
H 	 -19.7957 	 3.20294 	 71.3997 	 
S 	 -22.2677 	 2.97851 	 78.6515 	 
C 	 -23.773 	 3.79692 	 79.0166 	 
C 	 -24.7035 	 3.49629 	 78.0135 	 
C 	 -24.2049 	 2.66273 	 76.9696 	 
C 	 -22.8897 	 2.28046 	 77.1817 	 
H 	 -25.6875 	 3.91859 	 78.0811 	 
C 	 -25.0595 	 2.105 	 75.9161 	 
H 	 -24.5522 	 1.7844 	 75.0496 	 
H 	 -25.6105 	 2.88642 	 75.465 	 
C 	 -26.0363 	 0.966534 	 76.2892 	 
H 	 -26.8302 	 1.54023 	 76.7858 	 
H 	 -25.5997 	 0.242078 	 76.9956 	 
C 	 -26.5343 	 0.240135 	 75.1054 	 
H 	 -27.1685 	 0.800533 	 74.554 	 
H 	 -27.0092 	 -0.611387 	 75.4733 	 
H 	 -25.7781 	 0.0047079 	 74.3438 	 
H 	 -19.0096 	 -0.17521 	 75.631 	 
H 	 -23.9617 	 4.38518 	 79.9138 	 
