34

S 	 -17.3615 	 33.9957 	 36.7783 	 
C 	 -18.2034 	 34.4876 	 35.3268 	 
C 	 -18.8792 	 33.4362 	 34.7547 	 
C 	 -18.6767 	 32.2104 	 35.5075 	 
C 	 -17.8926 	 32.2988 	 36.628 	 
H 	 -19.1903 	 31.2562 	 35.2187 	 
C 	 -19.6756 	 33.5584 	 33.5377 	 
H 	 -20.2274 	 34.517 	 33.7214 	 
H 	 -20.5037 	 32.836 	 33.3189 	 
C 	 -18.6714 	 33.6772 	 32.2877 	 
H 	 -17.7488 	 34.1291 	 32.6798 	 
H 	 -18.4823 	 32.6595 	 31.8932 	 
C 	 -19.1865 	 34.4627 	 31.0584 	 
H 	 -18.3988 	 34.5766 	 30.3123 	 
H 	 -20.0959 	 34.1098 	 30.7321 	 
H 	 -19.4186 	 35.5259 	 31.2848 	 
S 	 -17.6744 	 32.0098 	 39.2549 	 
C 	 -17.5193 	 30.4893 	 40.1145 	 
C 	 -17.3489 	 29.5033 	 39.1343 	 
C 	 -17.3965 	 29.9334 	 37.7631 	 
C 	 -17.5623 	 31.3221 	 37.627 	 
H 	 -17.3073 	 28.5097 	 39.4416 	 
C 	 -17.312 	 29.0513 	 36.589 	 
H 	 -16.4286 	 28.386 	 36.6667 	 
H 	 -17.0165 	 29.5949 	 35.774 	 
C 	 -18.5397 	 28.2351 	 36.1428 	 
H 	 -18.1853 	 27.6803 	 35.3095 	 
H 	 -19.3138 	 28.8606 	 35.7727 	 
C 	 -19.2881 	 27.3265 	 37.0759 	 
H 	 -18.7426 	 26.3651 	 37.1926 	 
H 	 -20.308 	 27.1749 	 36.694 	 
H 	 -19.467 	 27.8649 	 38.0494 	 
H 	 -18.36 	 35.5459 	 35.0145 	 
H 	 -17.4412 	 30.3127 	 41.1604 	 
