34

S 	 -30.6249 	 69.4653 	 100.36 	 
C 	 -30.4312 	 67.8253 	 99.887 	 
C 	 -29.4259 	 67.1865 	 100.573 	 
C 	 -28.6523 	 68.1513 	 101.323 	 
C 	 -29.0668 	 69.4862 	 101.122 	 
H 	 -27.7162 	 67.9974 	 101.969 	 
C 	 -29.2517 	 65.6923 	 100.54 	 
H 	 -30.0648 	 65.2136 	 100.04 	 
H 	 -29.3702 	 65.3035 	 101.573 	 
C 	 -28.0129 	 65.0636 	 99.9438 	 
H 	 -27.1195 	 65.3969 	 100.483 	 
H 	 -28.1125 	 64.0019 	 100.1 	 
C 	 -27.8719 	 65.4689 	 98.4789 	 
H 	 -28.8092 	 65.1811 	 97.9755 	 
H 	 -27.6435 	 66.5232 	 98.2438 	 
H 	 -27.0601 	 64.8559 	 98.0581 	 
S 	 -29.7942 	 71.6554 	 102.792 	 
C 	 -28.6053 	 72.6898 	 103.397 	 
C 	 -27.3762 	 72.3992 	 102.847 	 
C 	 -27.3452 	 71.3139 	 101.956 	 
C 	 -28.5867 	 70.7586 	 101.8 	 
H 	 -26.5459 	 73.0486 	 103.043 	 
C 	 -26.1408 	 70.7266 	 101.259 	 
H 	 -26.2777 	 70.4654 	 100.169 	 
H 	 -25.9798 	 69.8295 	 101.802 	 
C 	 -24.8707 	 71.5755 	 101.384 	 
H 	 -24.1582 	 70.899 	 100.889 	 
H 	 -24.6357 	 71.6644 	 102.447 	 
C 	 -24.8127 	 72.9157 	 100.534 	 
H 	 -25.4136 	 73.6128 	 101.106 	 
H 	 -25.2021 	 72.8483 	 99.5503 	 
H 	 -23.7024 	 73.1633 	 100.541 	 
H 	 -31.0047 	 67.36 	 99.1191 	 
H 	 -28.8327 	 73.3705 	 104.25 	 
