34

S 	 -19.1638 	 -10.6095 	 87.7443 	 
C 	 -18.4447 	 -10.2646 	 86.2249 	 
C 	 -17.2077 	 -9.61577 	 86.3412 	 
C 	 -16.9192 	 -9.31028 	 87.6903 	 
C 	 -17.9942 	 -9.53008 	 88.5334 	 
H 	 -15.9897 	 -8.88771 	 88.0335 	 
C 	 -16.3045 	 -9.20766 	 85.2201 	 
H 	 -15.9297 	 -8.15986 	 85.2796 	 
H 	 -16.975 	 -9.24574 	 84.3835 	 
C 	 -15.1497 	 -10.1456 	 84.8282 	 
H 	 -14.3732 	 -10.3846 	 85.6433 	 
H 	 -15.5205 	 -11.1634 	 84.6929 	 
C 	 -14.246 	 -9.72299 	 83.6482 	 
H 	 -13.5047 	 -10.4312 	 83.3622 	 
H 	 -14.9125 	 -9.63505 	 82.8544 	 
H 	 -13.6247 	 -8.80569 	 83.8494 	 
S 	 -18.5096 	 -10.5801 	 91.0834 	 
C 	 -18.2062 	 -9.57924 	 92.4716 	 
C 	 -17.699 	 -8.36203 	 92.0927 	 
C 	 -17.5592 	 -8.14919 	 90.6584 	 
C 	 -18.0042 	 -9.24427 	 89.9455 	 
H 	 -17.4745 	 -7.57142 	 92.8309 	 
C 	 -17.0987 	 -6.88753 	 90.0284 	 
H 	 -18.0569 	 -6.59095 	 89.6476 	 
H 	 -16.6146 	 -7.14863 	 89.1322 	 
C 	 -16.3579 	 -5.9435 	 90.9962 	 
H 	 -15.5619 	 -6.46595 	 91.5292 	 
H 	 -16.8629 	 -5.4735 	 91.8527 	 
C 	 -15.6537 	 -4.79451 	 90.1991 	 
H 	 -15.0651 	 -4.08579 	 90.9124 	 
H 	 -16.4529 	 -4.17637 	 89.8641 	 
H 	 -14.9838 	 -5.15028 	 89.3856 	 
H 	 -18.866 	 -10.5022 	 85.3525 	 
H 	 -18.674 	 -9.85024 	 93.4303 	 
