34

S 	 -75.4842 	 38.5873 	 123.646 	 
C 	 -74.2274 	 38.9272 	 124.884 	 
C 	 -72.9963 	 38.5745 	 124.414 	 
C 	 -73.0528 	 37.9723 	 123.124 	 
C 	 -74.2675 	 38.1601 	 122.447 	 
H 	 -72.1665 	 37.6735 	 122.498 	 
C 	 -71.6345 	 38.6181 	 125.058 	 
H 	 -71.3577 	 39.614 	 125.414 	 
H 	 -70.909 	 38.4753 	 124.26 	 
C 	 -71.2929 	 37.7642 	 126.3 	 
H 	 -70.3783 	 38.0417 	 126.859 	 
H 	 -72.0707 	 37.9476 	 127.04 	 
C 	 -71.3197 	 36.2557 	 126.06 	 
H 	 -72.2616 	 36.0288 	 125.551 	 
H 	 -70.5255 	 35.8757 	 125.374 	 
H 	 -71.2872 	 35.6765 	 126.985 	 
S 	 -75.2681 	 39.3562 	 120.156 	 
C 	 -75.3694 	 38.4238 	 118.694 	 
C 	 -74.8503 	 37.177 	 118.817 	 
C 	 -74.3133 	 36.9307 	 120.151 	 
C 	 -74.5688 	 37.9654 	 121.056 	 
H 	 -74.7803 	 36.5043 	 117.937 	 
C 	 -73.6149 	 35.6526 	 120.498 	 
H 	 -73.581 	 35.5529 	 121.609 	 
H 	 -72.5589 	 35.8919 	 120.168 	 
C 	 -73.8778 	 34.3934 	 119.715 	 
H 	 -73.6494 	 34.5774 	 118.642 	 
H 	 -74.9468 	 34.0565 	 119.726 	 
C 	 -73.038 	 33.2037 	 120.209 	 
H 	 -73.2011 	 32.8041 	 121.215 	 
H 	 -71.9967 	 33.4647 	 120.14 	 
H 	 -73.1391 	 32.3066 	 119.64 	 
H 	 -74.5274 	 39.3461 	 125.786 	 
H 	 -75.8456 	 38.6697 	 117.736 	 
