34

S 	 -75.6201 	 46.5024 	 127.797 	 
C 	 -75.4385 	 44.7865 	 127.472 	 
C 	 -74.0489 	 44.4232 	 127.387 	 
C 	 -73.2154 	 45.5171 	 127.743 	 
C 	 -73.9415 	 46.7211 	 128.047 	 
H 	 -72.1245 	 45.6573 	 127.82 	 
C 	 -73.5908 	 43.0129 	 127.248 	 
H 	 -74.372 	 42.3446 	 126.808 	 
H 	 -73.6752 	 42.6915 	 128.304 	 
C 	 -72.3099 	 42.7859 	 126.472 	 
H 	 -71.4949 	 43.2447 	 127.018 	 
H 	 -72.1628 	 41.7248 	 126.427 	 
C 	 -72.3242 	 43.2705 	 125.027 	 
H 	 -72.4404 	 44.3709 	 124.944 	 
H 	 -71.4053 	 43.1037 	 124.456 	 
H 	 -73.1463 	 42.8086 	 124.488 	 
S 	 -72.2378 	 48.5381 	 126.936 	 
C 	 -71.9649 	 50.1279 	 127.671 	 
C 	 -72.6645 	 50.2416 	 128.819 	 
C 	 -73.4644 	 49.0928 	 129.079 	 
C 	 -73.3476 	 48.065 	 128.207 	 
H 	 -72.428 	 51.0981 	 129.568 	 
C 	 -74.2779 	 48.9912 	 130.432 	 
H 	 -73.6035 	 49.357 	 131.228 	 
H 	 -74.5738 	 48.0078 	 130.623 	 
C 	 -75.5536 	 49.9501 	 130.413 	 
H 	 -75.1114 	 50.898 	 130.334 	 
H 	 -75.9721 	 49.7955 	 131.466 	 
C 	 -76.6124 	 49.8014 	 129.444 	 
H 	 -76.1749 	 50.0029 	 128.46 	 
H 	 -77.4633 	 50.4409 	 129.731 	 
H 	 -76.958 	 48.7576 	 129.412 	 
H 	 -76.2889 	 44.1681 	 127.147 	 
H 	 -71.204 	 50.8349 	 127.35 	 
