34

S 	 -100.723 	 52.6687 	 115.153 	 
C 	 -100.276 	 52.0381 	 113.559 	 
C 	 -101.188 	 52.4293 	 112.604 	 
C 	 -102.256 	 53.1838 	 113.183 	 
C 	 -102.159 	 53.3694 	 114.581 	 
H 	 -102.995 	 53.7224 	 112.621 	 
C 	 -100.993 	 52.1076 	 111.141 	 
H 	 -100.086 	 51.5475 	 111.056 	 
H 	 -100.904 	 53.0744 	 110.603 	 
C 	 -102.177 	 51.4822 	 110.342 	 
H 	 -101.888 	 51.4734 	 109.276 	 
H 	 -102.31 	 50.4334 	 110.603 	 
C 	 -103.597 	 52.0197 	 110.512 	 
H 	 -104.289 	 51.458 	 109.84 	 
H 	 -103.978 	 52.1227 	 111.536 	 
H 	 -103.561 	 53.0413 	 110.013 	 
S 	 -102.287 	 55.282 	 116.477 	 
C 	 -103.833 	 55.883 	 116.987 	 
C 	 -104.919 	 55.1867 	 116.564 	 
C 	 -104.408 	 54.0995 	 115.768 	 
C 	 -103.061 	 54.1312 	 115.428 	 
H 	 -105.917 	 55.3526 	 116.932 	 
C 	 -105.326 	 53.0099 	 115.184 	 
H 	 -105.212 	 52.2278 	 115.886 	 
H 	 -104.882 	 52.6208 	 114.24 	 
C 	 -106.843 	 53.2388 	 114.999 	 
H 	 -107.342 	 53.5893 	 115.878 	 
H 	 -107.421 	 52.2436 	 114.883 	 
C 	 -107.051 	 54.2096 	 113.837 	 
H 	 -106.427 	 53.9515 	 112.872 	 
H 	 -106.788 	 55.2037 	 114.21 	 
H 	 -108.094 	 54.15 	 113.483 	 
H 	 -99.4433 	 51.3639 	 113.296 	 
H 	 -103.929 	 56.7097 	 117.7 	 
