34

S 	 -38.822 	 -0.682518 	 99.2376 	 
C 	 -37.3585 	 -1.40354 	 99.8704 	 
C 	 -36.3302 	 -0.503807 	 99.7321 	 
C 	 -36.7565 	 0.86258 	 99.3495 	 
C 	 -38.1067 	 0.857405 	 99.062 	 
H 	 -36.2011 	 1.74986 	 99.2607 	 
C 	 -34.8737 	 -0.818368 	 99.9518 	 
H 	 -34.6331 	 -1.52294 	 99.1902 	 
H 	 -34.883 	 -1.31816 	 100.954 	 
C 	 -33.7816 	 0.275229 	 100.11 	 
H 	 -34.0439 	 0.944145 	 100.919 	 
H 	 -32.8048 	 -0.0853452 	 100.571 	 
C 	 -33.444 	 1.08278 	 98.8658 	 
H 	 -32.9886 	 2.0413 	 99.1637 	 
H 	 -32.6484 	 0.68401 	 98.2763 	 
H 	 -34.2651 	 1.2465 	 98.2521 	 
S 	 -40.1942 	 2.3798 	 99.783 	 
C 	 -40.653 	 3.78378 	 98.8866 	 
C 	 -39.9892 	 3.83624 	 97.6732 	 
C 	 -38.8823 	 2.91167 	 97.5958 	 
C 	 -38.9375 	 1.995 	 98.6479 	 
H 	 -40.3628 	 4.58018 	 96.937 	 
C 	 -37.9064 	 2.77951 	 96.4057 	 
H 	 -37.3587 	 1.80059 	 96.6516 	 
H 	 -37.2201 	 3.61894 	 96.5457 	 
C 	 -38.5215 	 2.76794 	 95.0026 	 
H 	 -39.2189 	 3.59607 	 94.8947 	 
H 	 -39.0369 	 1.82435 	 94.7974 	 
C 	 -37.5297 	 3.01509 	 93.8112 	 
H 	 -36.8722 	 3.85329 	 93.9139 	 
H 	 -38.0371 	 3.10695 	 92.867 	 
H 	 -36.7871 	 2.21494 	 93.8448 	 
H 	 -37.21 	 -2.40411 	 100.36 	 
H 	 -41.5151 	 4.3923 	 99.1197 	 
