34

S 	 -14.1323 	 -11.9086 	 90.5238 	 
C 	 -15.5824 	 -10.9824 	 90.7351 	 
C 	 -15.3896 	 -9.65389 	 90.4073 	 
C 	 -14.1031 	 -9.35142 	 89.9338 	 
C 	 -13.2799 	 -10.4359 	 89.855 	 
H 	 -13.6387 	 -8.4188 	 89.6357 	 
C 	 -16.5071 	 -8.56713 	 90.3998 	 
H 	 -17.4325 	 -9.13425 	 90.7479 	 
H 	 -16.7832 	 -8.24266 	 89.3965 	 
C 	 -16.1279 	 -7.31681 	 91.2889 	 
H 	 -15.7328 	 -7.5815 	 92.3239 	 
H 	 -15.2934 	 -6.79506 	 90.8605 	 
C 	 -17.2949 	 -6.34217 	 91.4217 	 
H 	 -17.6664 	 -6.08926 	 90.4146 	 
H 	 -18.1858 	 -6.78741 	 91.8959 	 
H 	 -17.0634 	 -5.43048 	 91.9768 	 
S 	 -10.6897 	 -10.0585 	 90.7187 	 
C 	 -9.43166 	 -10.403 	 89.6409 	 
C 	 -9.87737 	 -10.7103 	 88.3701 	 
C 	 -11.3037 	 -10.7123 	 88.2436 	 
C 	 -11.9036 	 -10.4163 	 89.4948 	 
H 	 -9.09367 	 -10.8241 	 87.5978 	 
C 	 -11.9144 	 -11.1619 	 86.9335 	 
H 	 -12.9554 	 -11.0729 	 87.0537 	 
H 	 -11.6675 	 -12.166 	 86.7039 	 
C 	 -11.506 	 -10.3609 	 85.6074 	 
H 	 -10.4102 	 -10.3883 	 85.7317 	 
H 	 -11.8604 	 -9.31215 	 85.5392 	 
C 	 -11.9096 	 -11.1558 	 84.3659 	 
H 	 -11.557 	 -10.5589 	 83.4976 	 
H 	 -12.987 	 -11.3192 	 84.3077 	 
H 	 -11.4026 	 -12.1533 	 84.4402 	 
H 	 -16.6097 	 -11.3043 	 90.9154 	 
H 	 -8.36955 	 -10.3416 	 89.8197 	 
