34

S 	 -30.5566 	 62.1198 	 112.14 	 
C 	 -29.3354 	 61.6735 	 110.943 	 
C 	 -29.9214 	 61.2905 	 109.743 	 
C 	 -31.3257 	 61.1363 	 109.859 	 
C 	 -31.8697 	 61.5516 	 111.104 	 
H 	 -31.9372 	 60.811 	 108.95 	 
C 	 -29.2161 	 61.0156 	 108.398 	 
H 	 -29.8416 	 61.4059 	 107.673 	 
H 	 -29.2507 	 59.9144 	 108.341 	 
C 	 -27.7576 	 61.5169 	 108.36 	 
H 	 -27.1319 	 60.8462 	 108.979 	 
H 	 -27.4269 	 61.1152 	 107.387 	 
C 	 -27.585 	 62.9815 	 108.721 	 
H 	 -28.3197 	 63.5784 	 108.209 	 
H 	 -27.5619 	 63.1423 	 109.776 	 
H 	 -26.6424 	 63.4295 	 108.342 	 
S 	 -33.8884 	 62.8524 	 112.257 	 
C 	 -35.5581 	 62.3706 	 112.017 	 
C 	 -35.5742 	 61.0689 	 111.527 	 
C 	 -34.2627 	 60.5752 	 111.238 	 
C 	 -33.2681 	 61.4952 	 111.493 	 
H 	 -36.5034 	 60.5815 	 111.376 	 
C 	 -34.0301 	 59.219 	 110.616 	 
H 	 -34.7782 	 58.5514 	 111.03 	 
H 	 -33.0571 	 58.8956 	 110.928 	 
C 	 -34.0923 	 59.2431 	 109.045 	 
H 	 -33.9288 	 60.3128 	 108.699 	 
H 	 -35.0544 	 58.9023 	 108.865 	 
C 	 -33.1123 	 58.3236 	 108.318 	 
H 	 -33.1108 	 57.2939 	 108.553 	 
H 	 -32.1436 	 58.7622 	 108.506 	 
H 	 -33.377 	 58.4041 	 107.311 	 
H 	 -28.3252 	 61.3419 	 111.066 	 
H 	 -36.3164 	 63.08 	 112.279 	 
