34

S 	 9.76104 	 27.3449 	 63.0691 	 
C 	 10.2171 	 26.7489 	 61.4924 	 
C 	 9.30561 	 25.8328 	 60.9862 	 
C 	 8.30531 	 25.6168 	 61.932 	 
C 	 8.43795 	 26.3174 	 63.1189 	 
H 	 7.61069 	 24.8637 	 61.9642 	 
C 	 9.32678 	 25.1495 	 59.6287 	 
H 	 9.07743 	 25.9821 	 58.9157 	 
H 	 8.43017 	 24.4704 	 59.5672 	 
C 	 10.6096 	 24.3905 	 59.1773 	 
H 	 10.4325 	 24.1299 	 58.1519 	 
H 	 11.4601 	 24.9791 	 59.0235 	 
C 	 10.9279 	 23.1003 	 59.8884 	 
H 	 11.899 	 22.8163 	 59.5547 	 
H 	 10.7892 	 23.1482 	 61.0129 	 
H 	 10.2622 	 22.337 	 59.481 	 
S 	 8.26885 	 25.6816 	 65.7972 	 
C 	 6.7116 	 25.7914 	 66.5403 	 
C 	 5.7014 	 25.965 	 65.6353 	 
C 	 6.20946 	 26.2103 	 64.3529 	 
C 	 7.55841 	 26.2287 	 64.2539 	 
H 	 4.71691 	 25.8161 	 65.9557 	 
C 	 5.21266 	 26.376 	 63.247 	 
H 	 5.73033 	 26.7038 	 62.3022 	 
H 	 4.55004 	 27.2199 	 63.3658 	 
C 	 4.35631 	 25.1785 	 62.8407 	 
H 	 3.48905 	 25.3855 	 62.1359 	 
H 	 3.89049 	 24.8136 	 63.7247 	 
C 	 5.15683 	 23.9851 	 62.3416 	 
H 	 5.82681 	 23.7011 	 63.1875 	 
H 	 5.64393 	 24.1838 	 61.3613 	 
H 	 4.50431 	 23.0736 	 62.2122 	 
H 	 11.1232 	 26.9839 	 60.9978 	 
H 	 6.53727 	 25.6597 	 67.6229 	 
