34

S 	 5.69981 	 12.694 	 86.5307 	 
C 	 5.05359 	 12.7157 	 84.9171 	 
C 	 5.75359 	 13.6573 	 84.1516 	 
C 	 6.76737 	 14.3588 	 84.8335 	 
C 	 6.87132 	 13.9638 	 86.1462 	 
H 	 7.42012 	 15.1151 	 84.419 	 
C 	 5.39123 	 13.9448 	 82.691 	 
H 	 5.56172 	 12.9059 	 82.3016 	 
H 	 6.10276 	 14.6774 	 82.2268 	 
C 	 3.88605 	 14.4177 	 82.4527 	 
H 	 3.18765 	 13.6945 	 82.8458 	 
H 	 3.7012 	 15.3387 	 82.9013 	 
C 	 3.6577 	 14.6522 	 80.9921 	 
H 	 2.89335 	 15.4334 	 80.7524 	 
H 	 4.45738 	 15.2104 	 80.4309 	 
H 	 3.62133 	 13.6988 	 80.4766 	 
S 	 8.35055 	 13.2074 	 88.315 	 
C 	 9.11921 	 14.4138 	 89.2769 	 
C 	 9.18539 	 15.585 	 88.5798 	 
C 	 8.48113 	 15.5937 	 87.3824 	 
C 	 7.77533 	 14.4275 	 87.1942 	 
H 	 9.84332 	 16.3667 	 88.9864 	 
C 	 8.62929 	 16.8636 	 86.4455 	 
H 	 8.4934 	 16.5298 	 85.4193 	 
H 	 9.59707 	 17.2792 	 86.506 	 
C 	 7.65049 	 18.023 	 86.6746 	 
H 	 7.70536 	 18.6607 	 85.7581 	 
H 	 8.02617 	 18.6462 	 87.4662 	 
C 	 6.23085 	 17.6234 	 86.9615 	 
H 	 5.67554 	 18.5291 	 87.3576 	 
H 	 6.11632 	 16.7389 	 87.5754 	 
H 	 5.63485 	 17.2986 	 86.107 	 
H 	 4.18286 	 12.1554 	 84.6563 	 
H 	 9.76259 	 14.0873 	 90.1303 	 
