34

S 	 -33.5915 	 70.8004 	 170.56 	 
C 	 -32.5038 	 72.113 	 170.697 	 
C 	 -33.1474 	 73.311 	 170.74 	 
C 	 -34.5868 	 73.2009 	 170.791 	 
C 	 -35.0149 	 71.9036 	 170.757 	 
H 	 -35.2698 	 74.049 	 170.73 	 
C 	 -32.4996 	 74.6852 	 170.792 	 
H 	 -31.3612 	 74.5636 	 170.762 	 
H 	 -32.6852 	 75.2202 	 171.701 	 
C 	 -32.976 	 75.6405 	 169.63 	 
H 	 -32.6706 	 75.2578 	 168.688 	 
H 	 -34.0311 	 75.6539 	 169.583 	 
C 	 -32.3073 	 76.9984 	 169.744 	 
H 	 -32.8987 	 77.7287 	 169.173 	 
H 	 -32.2453 	 77.2756 	 170.818 	 
H 	 -31.3539 	 76.9803 	 169.319 	 
S 	 -36.8701 	 70.3699 	 169.362 	 
C 	 -38.4878 	 70.1178 	 170.042 	 
C 	 -38.6085 	 70.7936 	 171.268 	 
C 	 -37.4251 	 71.4807 	 171.642 	 
C 	 -36.3639 	 71.3329 	 170.721 	 
H 	 -39.5525 	 70.8459 	 171.755 	 
C 	 -37.4936 	 72.4476 	 172.814 	 
H 	 -36.5075 	 72.9251 	 172.898 	 
H 	 -37.7752 	 72.0283 	 173.781 	 
C 	 -38.4273 	 73.588 	 172.57 	 
H 	 -38.4888 	 74.1937 	 173.491 	 
H 	 -39.3742 	 73.1434 	 172.286 	 
C 	 -38.0269 	 74.6589 	 171.534 	 
H 	 -38.0101 	 74.1775 	 170.56 	 
H 	 -37.0642 	 75.0884 	 171.822 	 
H 	 -38.8838 	 75.3066 	 171.592 	 
H 	 -31.512 	 71.9701 	 170.493 	 
H 	 -39.3089 	 69.5623 	 169.589 	 
