34

S 	 -40.7212 	 35.2494 	 79.8516 	 
C 	 -41.0665 	 36.419 	 78.6558 	 
C 	 -42.2405 	 36.1103 	 77.9926 	 
C 	 -42.9875 	 35.0904 	 78.7372 	 
C 	 -42.3105 	 34.58 	 79.8432 	 
H 	 -43.8986 	 34.5776 	 78.372 	 
C 	 -42.8447 	 36.9605 	 76.8535 	 
H 	 -43.3831 	 36.3206 	 76.1772 	 
H 	 -42.0982 	 37.3991 	 76.2613 	 
C 	 -43.9265 	 37.9494 	 77.3472 	 
H 	 -44.6859 	 37.4365 	 77.9084 	 
H 	 -43.5249 	 38.6563 	 78.0229 	 
C 	 -44.5981 	 38.6309 	 76.1875 	 
H 	 -45.2362 	 37.969 	 75.5697 	 
H 	 -45.3854 	 39.3464 	 76.5307 	 
H 	 -43.8877 	 39.0966 	 75.4403 	 
S 	 -44.4083 	 33.8094 	 81.4775 	 
C 	 -44.3404 	 32.3308 	 82.3344 	 
C 	 -43.1913 	 31.5769 	 82.1968 	 
C 	 -42.3332 	 32.2808 	 81.2846 	 
C 	 -42.8571 	 33.5467 	 80.7448 	 
H 	 -43.0522 	 30.6547 	 82.6912 	 
C 	 -40.9889 	 31.6646 	 81.0428 	 
H 	 -40.995 	 30.6283 	 81.4031 	 
H 	 -40.1707 	 32.1135 	 81.6415 	 
C 	 -40.4478 	 31.7136 	 79.5667 	 
H 	 -40.2496 	 32.7653 	 79.2395 	 
H 	 -41.2717 	 31.353 	 78.9179 	 
C 	 -39.1488 	 30.8656 	 79.2398 	 
H 	 -38.2775 	 31.5292 	 79.3526 	 
H 	 -39.2467 	 30.5417 	 78.2313 	 
H 	 -39.1284 	 29.9834 	 79.8524 	 
H 	 -40.3652 	 37.1741 	 78.2045 	 
H 	 -45.1164 	 31.9683 	 82.9735 	 
