34

S 	 9.13458 	 -6.75809 	 73.8682 	 
C 	 8.80474 	 -5.24277 	 74.6287 	 
C 	 8.02723 	 -4.49697 	 73.7702 	 
C 	 8.04489 	 -5.02796 	 72.452 	 
C 	 8.59475 	 -6.26659 	 72.2848 	 
H 	 7.70923 	 -4.48715 	 71.5647 	 
C 	 7.49868 	 -3.12131 	 74.1519 	 
H 	 7.90529 	 -2.82504 	 75.2155 	 
H 	 6.43287 	 -3.0979 	 74.0994 	 
C 	 7.75363 	 -2.05701 	 73.1575 	 
H 	 7.53333 	 -2.50255 	 72.1418 	 
H 	 7.10452 	 -1.18533 	 73.184 	 
C 	 9.20936 	 -1.66727 	 73.2307 	 
H 	 9.9067 	 -2.46101 	 73.1502 	 
H 	 9.29849 	 -1.03573 	 72.3709 	 
H 	 9.49619 	 -1.08566 	 74.1583 	 
S 	 10.5422 	 -7.61411 	 70.9228 	 
C 	 10.1327 	 -8.45611 	 69.4394 	 
C 	 8.82497 	 -8.1857 	 69.0323 	 
C 	 8.04073 	 -7.54096 	 70.0417 	 
C 	 8.86511 	 -7.00879 	 71.0504 	 
H 	 8.56707 	 -8.4979 	 68.0466 	 
C 	 6.61301 	 -7.21476 	 69.8531 	 
H 	 6.2167 	 -7.56494 	 68.8409 	 
H 	 6.5788 	 -6.15976 	 69.7363 	 
C 	 5.5715 	 -7.75539 	 70.9292 	 
H 	 5.89403 	 -7.36554 	 71.9427 	 
H 	 5.67209 	 -8.86912 	 70.9732 	 
C 	 4.20471 	 -7.272 	 70.5888 	 
H 	 3.35036 	 -7.7422 	 71.096 	 
H 	 3.83742 	 -7.44675 	 69.5634 	 
H 	 4.1942 	 -6.21582 	 70.6161 	 
H 	 8.92713 	 -5.0734 	 75.6599 	 
H 	 10.8347 	 -8.74691 	 68.673 	 
