34

S 	 -25.887 	 51.1327 	 64.9055 	 
C 	 -25.1938 	 50.142 	 63.6261 	 
C 	 -24.2264 	 49.2765 	 64.117 	 
C 	 -24.1473 	 49.3726 	 65.5718 	 
C 	 -24.9412 	 50.2979 	 66.1632 	 
H 	 -23.5344 	 48.7252 	 66.1684 	 
C 	 -23.3802 	 48.2445 	 63.3284 	 
H 	 -22.3335 	 48.3846 	 63.5775 	 
H 	 -23.4411 	 48.381 	 62.1944 	 
C 	 -23.8024 	 46.7951 	 63.7558 	 
H 	 -22.9534 	 46.1876 	 63.3414 	 
H 	 -23.7368 	 46.8327 	 64.8589 	 
C 	 -25.1881 	 46.3814 	 63.1984 	 
H 	 -26.0122 	 47.0129 	 63.5338 	 
H 	 -25.0878 	 46.4673 	 62.0951 	 
H 	 -25.4417 	 45.3476 	 63.514 	 
S 	 -24.5341 	 51.95 	 68.4727 	 
C 	 -25.0049 	 51.3378 	 70.0102 	 
C 	 -25.4418 	 50.0201 	 69.9011 	 
C 	 -25.4475 	 49.5505 	 68.5904 	 
C 	 -25.0877 	 50.5084 	 67.611 	 
H 	 -25.7668 	 49.5044 	 70.7494 	 
C 	 -26.0062 	 48.1682 	 68.3353 	 
H 	 -26.3345 	 47.5447 	 69.2844 	 
H 	 -25.1413 	 47.6939 	 67.942 	 
C 	 -27.2005 	 48.231 	 67.3988 	 
H 	 -26.9989 	 48.4554 	 66.3189 	 
H 	 -27.8773 	 49.0131 	 67.7031 	 
C 	 -28.1362 	 46.9726 	 67.3987 	 
H 	 -28.0005 	 46.405 	 68.3282 	 
H 	 -27.8603 	 46.3161 	 66.5741 	 
H 	 -29.0907 	 47.3483 	 67.2933 	 
H 	 -25.4551 	 50.1121 	 62.6115 	 
H 	 -24.8408 	 51.7881 	 70.9841 	 
