34

S 	 -63.7282 	 59.9591 	 125.569 	 
C 	 -62.1627 	 60.0724 	 124.751 	 
C 	 -62.3056 	 59.4927 	 123.496 	 
C 	 -63.6461 	 59.0523 	 123.214 	 
C 	 -64.5698 	 59.1763 	 124.245 	 
H 	 -63.9611 	 58.5977 	 122.298 	 
C 	 -61.2636 	 59.3664 	 122.404 	 
H 	 -60.9468 	 58.364 	 122.204 	 
H 	 -60.3331 	 59.8597 	 122.717 	 
C 	 -61.5516 	 60.0895 	 121.091 	 
H 	 -62.641 	 59.9839 	 120.784 	 
H 	 -61.3441 	 61.0988 	 121.269 	 
C 	 -60.7483 	 59.422 	 120.013 	 
H 	 -60.9149 	 58.37 	 120.116 	 
H 	 -61.1196 	 59.7347 	 119.079 	 
H 	 -59.7275 	 59.682 	 120.15 	 
S 	 -66.9922 	 59.8503 	 125.315 	 
C 	 -68.4414 	 59.0083 	 124.895 	 
C 	 -68.1525 	 57.9172 	 124.077 	 
C 	 -66.7409 	 57.8206 	 123.66 	 
C 	 -65.9788 	 58.842 	 124.28 	 
H 	 -68.9391 	 57.3454 	 123.678 	 
C 	 -66.2703 	 56.7734 	 122.707 	 
H 	 -65.4755 	 57.1014 	 122.086 	 
H 	 -67.118 	 56.4904 	 122.101 	 
C 	 -65.7389 	 55.5563 	 123.396 	 
H 	 -66.4598 	 55.0948 	 124.117 	 
H 	 -64.9525 	 55.6918 	 124.16 	 
C 	 -65.2015 	 54.5704 	 122.407 	 
H 	 -64.4178 	 54.8452 	 121.8 	 
H 	 -66.0636 	 54.253 	 121.742 	 
H 	 -64.9387 	 53.6016 	 122.845 	 
H 	 -61.2534 	 60.504 	 125.19 	 
H 	 -69.4332 	 59.1613 	 125.287 	 
