34

S 	 -46.0774 	 51.4088 	 101.666 	 
C 	 -45.7784 	 52.2904 	 103.158 	 
C 	 -45.5251 	 51.5421 	 104.263 	 
C 	 -45.4988 	 50.1293 	 103.915 	 
C 	 -45.9019 	 49.8967 	 102.6 	 
H 	 -45.4656 	 49.3203 	 104.638 	 
C 	 -45.3171 	 52.0337 	 105.66 	 
H 	 -44.6743 	 52.8751 	 105.56 	 
H 	 -44.796 	 51.2109 	 106.159 	 
C 	 -46.7141 	 52.5621 	 106.256 	 
H 	 -46.9507 	 53.3768 	 105.659 	 
H 	 -47.5313 	 51.81 	 106.081 	 
C 	 -46.5283 	 53.1908 	 107.692 	 
H 	 -46.0963 	 52.3872 	 108.289 	 
H 	 -45.7376 	 53.9746 	 107.762 	 
H 	 -47.3646 	 53.6427 	 108.188 	 
S 	 -44.8837 	 47.9982 	 100.832 	 
C 	 -45.8775 	 46.5598 	 100.607 	 
C 	 -47.0472 	 46.5819 	 101.318 	 
C 	 -47.1432 	 47.7354 	 102.137 	 
C 	 -46.103 	 48.6286 	 101.988 	 
H 	 -47.7341 	 45.7588 	 101.273 	 
C 	 -48.3344 	 47.8828 	 103.105 	 
H 	 -47.9414 	 48.2497 	 104.021 	 
H 	 -48.5844 	 46.8351 	 103.322 	 
C 	 -49.4784 	 48.6978 	 102.471 	 
H 	 -49.7623 	 48.1859 	 101.554 	 
H 	 -49.0645 	 49.6169 	 102.024 	 
C 	 -50.7417 	 48.8318 	 103.332 	 
H 	 -50.4666 	 49.2569 	 104.27 	 
H 	 -51.267 	 47.9511 	 103.417 	 
H 	 -51.4844 	 49.4569 	 102.894 	 
H 	 -46.0051 	 53.3567 	 103.236 	 
H 	 -45.6831 	 45.7837 	 99.868 	 
