34

S 	 -62.1384 	 50.8088 	 126.495 	 
C 	 -63.8488 	 51.2227 	 126.664 	 
C 	 -64.2668 	 51.3444 	 127.961 	 
C 	 -63.233 	 51.0463 	 128.916 	 
C 	 -62.019 	 50.8007 	 128.299 	 
H 	 -63.4358 	 51.1694 	 129.955 	 
C 	 -65.6284 	 51.8022 	 128.373 	 
H 	 -65.8604 	 51.3424 	 129.385 	 
H 	 -66.4388 	 51.4125 	 127.74 	 
C 	 -65.8353 	 53.3229 	 128.436 	 
H 	 -65.0762 	 53.7827 	 129.103 	 
H 	 -65.763 	 53.6921 	 127.38 	 
C 	 -67.2271 	 53.7496 	 128.976 	 
H 	 -67.553 	 54.7474 	 128.975 	 
H 	 -68.0589 	 53.2762 	 128.47 	 
H 	 -67.3295 	 53.421 	 129.991 	 
S 	 -59.483 	 49.7173 	 128.278 	 
C 	 -58.3136 	 50.3395 	 129.374 	 
C 	 -58.8633 	 51.0642 	 130.371 	 
C 	 -60.2539 	 51.286 	 130.152 	 
C 	 -60.6839 	 50.7773 	 128.935 	 
H 	 -58.4128 	 51.47 	 131.245 	 
C 	 -61.0557 	 52.0181 	 131.214 	 
H 	 -60.5144 	 52.0142 	 132.238 	 
H 	 -61.9709 	 51.498 	 131.381 	 
C 	 -61.4223 	 53.4452 	 130.908 	 
H 	 -62.0537 	 54.0328 	 131.571 	 
H 	 -61.9764 	 53.4772 	 129.96 	 
C 	 -60.1448 	 54.359 	 130.733 	 
H 	 -60.4439 	 55.4907 	 130.731 	 
H 	 -59.6574 	 54.1055 	 129.739 	 
H 	 -59.4185 	 54.2454 	 131.636 	 
H 	 -64.487 	 51.3682 	 125.815 	 
H 	 -57.2948 	 49.9597 	 129.417 	 
