34

S 	 9.72168 	 23.797 	 68.195 	 
C 	 8.36976 	 22.9884 	 67.3298 	 
C 	 7.51985 	 23.8712 	 66.7098 	 
C 	 7.97681 	 25.2079 	 66.8345 	 
C 	 9.18812 	 25.3169 	 67.4935 	 
H 	 7.46313 	 26.0012 	 66.455 	 
C 	 6.17381 	 23.5728 	 66.0411 	 
H 	 6.39187 	 23.0476 	 65.0889 	 
H 	 5.75282 	 24.4976 	 65.7815 	 
C 	 5.10305 	 22.8913 	 66.9291 	 
H 	 4.20193 	 22.7308 	 66.3516 	 
H 	 5.50002 	 21.9007 	 67.2285 	 
C 	 4.75053 	 23.6654 	 68.206 	 
H 	 4.41598 	 24.7106 	 67.9443 	 
H 	 3.9603 	 23.1056 	 68.7354 	 
H 	 5.6527 	 23.7594 	 68.8449 	 
S 	 9.93324 	 27.1135 	 69.4353 	 
C 	 10.784 	 28.5861 	 69.0181 	 
C 	 10.8406 	 28.7246 	 67.638 	 
C 	 10.3482 	 27.5731 	 66.9424 	 
C 	 9.95405 	 26.5424 	 67.7804 	 
H 	 11.1528 	 29.6381 	 67.1359 	 
C 	 10.367 	 27.4927 	 65.4125 	 
H 	 10.5026 	 28.475 	 65.0708 	 
H 	 9.28996 	 27.3279 	 65.2856 	 
C 	 10.981 	 26.3047 	 64.7534 	 
H 	 10.76 	 26.3094 	 63.7126 	 
H 	 10.5096 	 25.3574 	 65.1573 	 
C 	 12.457 	 26.165 	 65.0127 	 
H 	 13.0282 	 27.0417 	 64.8216 	 
H 	 12.8965 	 25.3966 	 64.4043 	 
H 	 12.6818 	 25.9794 	 66.0864 	 
H 	 8.28035 	 21.9331 	 67.2646 	 
H 	 10.9011 	 29.39 	 69.7509 	 
