34

S 	 -17.8374 	 37.0313 	 57.1179 	 
C 	 -17.0432 	 36.82 	 55.6092 	 
C 	 -17.8674 	 37.1129 	 54.5563 	 
C 	 -19.2571 	 37.2893 	 54.9659 	 
C 	 -19.396 	 37.2625 	 56.3515 	 
H 	 -20.0724 	 37.5698 	 54.3535 	 
C 	 -17.4692 	 37.1538 	 53.1286 	 
H 	 -17.8836 	 36.2586 	 52.6457 	 
H 	 -16.3499 	 37.1002 	 53.1021 	 
C 	 -18.0884 	 38.2908 	 52.304 	 
H 	 -18.0416 	 37.9798 	 51.2512 	 
H 	 -19.1649 	 38.3279 	 52.5517 	 
C 	 -17.4674 	 39.7072 	 52.427 	 
H 	 -18.1771 	 40.4574 	 51.9876 	 
H 	 -17.5816 	 40.069 	 53.4702 	 
H 	 -16.451 	 39.7762 	 52.0121 	 
S 	 -20.2849 	 38.2864 	 58.7167 	 
C 	 -21.9954 	 38.3145 	 59.0645 	 
C 	 -22.783 	 37.8025 	 58.0478 	 
C 	 -21.9634 	 37.376 	 56.9779 	 
C 	 -20.6026 	 37.5636 	 57.1719 	 
H 	 -23.8832 	 37.9572 	 58.1915 	 
C 	 -22.4401 	 36.6182 	 55.7415 	 
H 	 -21.6746 	 35.867 	 55.5171 	 
H 	 -22.3279 	 37.3758 	 54.9098 	 
C 	 -23.8277 	 36.0907 	 55.6107 	 
H 	 -24.4528 	 36.9037 	 55.7791 	 
H 	 -23.9448 	 35.3229 	 56.3471 	 
C 	 -24.0801 	 35.5206 	 54.222 	 
H 	 -23.5559 	 34.5426 	 54.1487 	 
H 	 -23.7738 	 36.0651 	 53.3794 	 
H 	 -25.126 	 35.2688 	 54.0438 	 
H 	 -15.9322 	 36.57 	 55.5501 	 
H 	 -22.4716 	 38.7846 	 59.874 	 
