34

S 	 -29.553 	 69.966 	 158.688 	 
C 	 -28.1192 	 70.8195 	 159.215 	 
C 	 -28.333 	 72.1929 	 159.104 	 
C 	 -29.6505 	 72.5385 	 158.623 	 
C 	 -30.3868 	 71.4767 	 158.265 	 
H 	 -30.1332 	 73.5594 	 158.588 	 
C 	 -27.3507 	 73.187 	 159.768 	 
H 	 -26.4504 	 72.605 	 160.029 	 
H 	 -27.7874 	 73.5644 	 160.71 	 
C 	 -26.6297 	 74.2287 	 158.831 	 
H 	 -26.0318 	 74.8944 	 159.418 	 
H 	 -25.9149 	 73.7465 	 158.104 	 
C 	 -27.5163 	 75.2534 	 158.068 	 
H 	 -26.9639 	 76.0985 	 157.663 	 
H 	 -28.0503 	 74.8051 	 157.215 	 
H 	 -28.2462 	 75.7217 	 158.796 	 
S 	 -32.8084 	 70.449 	 158.931 	 
C 	 -34.2378 	 70.9725 	 158.086 	 
C 	 -33.959 	 71.9916 	 157.161 	 
C 	 -32.5599 	 72.2637 	 157.057 	 
C 	 -31.7969 	 71.415 	 157.931 	 
H 	 -34.7724 	 72.4748 	 156.717 	 
C 	 -31.993 	 73.3465 	 156.163 	 
H 	 -30.97 	 73.5539 	 156.446 	 
H 	 -32.4946 	 74.2245 	 156.501 	 
C 	 -32.0961 	 73.0286 	 154.639 	 
H 	 -32.0627 	 73.9368 	 154.095 	 
H 	 -33.0391 	 72.6481 	 154.272 	 
C 	 -30.9273 	 72.1799 	 154.19 	 
H 	 -31.1241 	 71.2554 	 154.687 	 
H 	 -29.9597 	 72.6519 	 154.447 	 
H 	 -30.8547 	 72.1678 	 153.094 	 
H 	 -27.252 	 70.2951 	 159.571 	 
H 	 -35.2166 	 70.758 	 158.359 	 
