34

S 	 -61.0506 	 35.1722 	 132.919 	 
C 	 -59.3166 	 34.7393 	 132.769 	 
C 	 -58.5063 	 35.8381 	 132.88 	 
C 	 -59.2872 	 37.0071 	 133.146 	 
C 	 -60.6199 	 36.7935 	 133.346 	 
H 	 -58.8166 	 38.0198 	 133.285 	 
C 	 -57.0162 	 35.866 	 132.495 	 
H 	 -56.9107 	 36.5816 	 131.67 	 
H 	 -56.6762 	 34.801 	 132.277 	 
C 	 -56.0187 	 36.3049 	 133.555 	 
H 	 -56.5857 	 37.1124 	 134.068 	 
H 	 -55.8726 	 35.5357 	 134.278 	 
C 	 -54.6723 	 36.6845 	 132.98 	 
H 	 -53.8273 	 36.619 	 133.643 	 
H 	 -54.324 	 36.0657 	 132.064 	 
H 	 -54.738 	 37.7013 	 132.598 	 
S 	 -61.9906 	 37.9606 	 135.439 	 
C 	 -63.1621 	 39.1988 	 135.108 	 
C 	 -63.1326 	 39.59 	 133.786 	 
C 	 -62.2453 	 38.8056 	 132.973 	 
C 	 -61.5577 	 37.8589 	 133.73 	 
H 	 -63.7235 	 40.3644 	 133.333 	 
C 	 -62.0707 	 38.9969 	 131.519 	 
H 	 -61.1526 	 38.6895 	 131.193 	 
H 	 -62.0077 	 40.0899 	 131.374 	 
C 	 -63.1157 	 38.3188 	 130.574 	 
H 	 -64.0426 	 38.6676 	 130.926 	 
H 	 -63.0273 	 37.2678 	 130.692 	 
C 	 -63.158 	 38.7232 	 129.089 	 
H 	 -62.4651 	 38.2431 	 128.36 	 
H 	 -62.7729 	 39.7546 	 128.917 	 
H 	 -64.2064 	 38.6954 	 128.821 	 
H 	 -59.0017 	 33.7776 	 132.385 	 
H 	 -63.6954 	 39.7126 	 135.908 	 
