34

S 	 -80.4284 	 44.0349 	 132.186 	 
C 	 -82.1556 	 43.9259 	 132.068 	 
C 	 -82.6235 	 45.2553 	 131.862 	 
C 	 -81.6791 	 46.2901 	 131.744 	 
C 	 -80.3884 	 45.7966 	 131.987 	 
H 	 -81.9086 	 47.3337 	 131.642 	 
C 	 -84.1043 	 45.5983 	 131.733 	 
H 	 -84.3768 	 46.229 	 132.536 	 
H 	 -84.7064 	 44.7391 	 132.039 	 
C 	 -84.5351 	 46.2373 	 130.424 	 
H 	 -85.6239 	 46.1842 	 130.444 	 
H 	 -84.3282 	 47.32 	 130.498 	 
C 	 -84.0838 	 45.6583 	 129.063 	 
H 	 -82.9649 	 45.6701 	 128.918 	 
H 	 -84.2896 	 44.676 	 128.889 	 
H 	 -84.457 	 46.266 	 128.24 	 
S 	 -78.7711 	 47.4043 	 130.398 	 
C 	 -77.2468 	 47.9331 	 130.979 	 
C 	 -77.0353 	 47.499 	 132.263 	 
C 	 -78.1082 	 46.6663 	 132.779 	 
C 	 -79.1694 	 46.5741 	 131.904 	 
H 	 -76.1588 	 47.891 	 132.715 	 
C 	 -78.0636 	 46.0945 	 134.198 	 
H 	 -77.1069 	 45.6037 	 134.332 	 
H 	 -78.8222 	 45.3163 	 134.277 	 
C 	 -78.1462 	 46.9794 	 135.429 	 
H 	 -79.0608 	 47.5465 	 135.458 	 
H 	 -77.3547 	 47.6375 	 135.621 	 
C 	 -78.212 	 46.2173 	 136.792 	 
H 	 -78.908 	 45.4047 	 136.688 	 
H 	 -78.3986 	 46.8322 	 137.691 	 
H 	 -77.2625 	 45.6943 	 137.016 	 
H 	 -82.6559 	 42.9999 	 131.964 	 
H 	 -76.5838 	 48.6811 	 130.487 	 
