34

S 	 -93.5609 	 41.3776 	 115.637 	 
C 	 -92.6827 	 41.9746 	 117.025 	 
C 	 -93.1221 	 43.252 	 117.282 	 
C 	 -94.2597 	 43.6737 	 116.503 	 
C 	 -94.7384 	 42.7388 	 115.641 	 
H 	 -94.7893 	 44.6234 	 116.634 	 
C 	 -92.4467 	 44.2243 	 118.221 	 
H 	 -92.7009 	 45.2448 	 117.908 	 
H 	 -91.471 	 44.1758 	 117.931 	 
C 	 -92.5158 	 43.8577 	 119.644 	 
H 	 -92.0053 	 42.9171 	 119.875 	 
H 	 -91.9768 	 44.612 	 120.197 	 
C 	 -94.0089 	 43.7307 	 120.284 	 
H 	 -94.7248 	 43.31 	 119.589 	 
H 	 -93.9712 	 43.1249 	 121.177 	 
H 	 -94.3523 	 44.7237 	 120.565 	 
S 	 -95.3472 	 43.4364 	 113.129 	 
C 	 -97.0239 	 43.5672 	 112.647 	 
C 	 -97.8908 	 43.2913 	 113.654 	 
C 	 -97.2238 	 42.8002 	 114.794 	 
C 	 -95.8566 	 42.8042 	 114.709 	 
H 	 -98.8962 	 43.4336 	 113.422 	 
C 	 -98.1115 	 42.5369 	 116.046 	 
H 	 -97.5098 	 41.7191 	 116.581 	 
H 	 -99.0071 	 41.9531 	 115.742 	 
C 	 -98.3211 	 43.7204 	 117.005 	 
H 	 -99.0053 	 44.4915 	 116.567 	 
H 	 -97.3872 	 44.2769 	 117.12 	 
C 	 -98.7766 	 43.3232 	 118.428 	 
H 	 -99.6364 	 42.6919 	 118.452 	 
H 	 -99.0227 	 44.2614 	 118.927 	 
H 	 -97.9314 	 42.9376 	 119.059 	 
H 	 -91.9758 	 41.4282 	 117.665 	 
H 	 -97.2777 	 44.0529 	 111.626 	 
