34

S 	 -0.162689 	 -13.5677 	 78.706 	 
C 	 -0.228944 	 -14.1443 	 80.4019 	 
C 	 0.96816 	 -13.8507 	 81.0111 	 
C 	 1.96223 	 -13.2778 	 80.1585 	 
C 	 1.55651 	 -13.1918 	 78.8412 	 
H 	 2.94906 	 -12.9466 	 80.4851 	 
C 	 1.19419 	 -14.0651 	 82.5022 	 
H 	 2.28233 	 -13.8006 	 82.6355 	 
H 	 1.25622 	 -15.1345 	 82.825 	 
C 	 0.278216 	 -13.3346 	 83.5093 	 
H 	 0.193621 	 -12.3428 	 83.1703 	 
H 	 -0.729961 	 -13.7779 	 83.6531 	 
C 	 0.960887 	 -13.2856 	 84.9089 	 
H 	 1.13712 	 -14.2831 	 85.4152 	 
H 	 1.89649 	 -12.7406 	 84.9944 	 
H 	 0.329349 	 -12.7277 	 85.622 	 
S 	 1.68234 	 -10.993 	 77.1765 	 
C 	 3.13425 	 -10.8006 	 76.2002 	 
C 	 4.10385 	 -11.6519 	 76.6435 	 
C 	 3.70298 	 -12.6368 	 77.51 	 
C 	 2.34431 	 -12.5041 	 77.8182 	 
H 	 5.10113 	 -11.4676 	 76.2502 	 
C 	 4.67614 	 -13.7622 	 77.768 	 
H 	 5.06308 	 -14.0622 	 76.709 	 
H 	 4.05142 	 -14.6684 	 78.1275 	 
C 	 5.74332 	 -13.6172 	 78.7498 	 
H 	 5.34337 	 -13.2213 	 79.6756 	 
H 	 6.46653 	 -12.8962 	 78.392 	 
C 	 6.4206 	 -14.9387 	 78.9727 	 
H 	 6.93487 	 -15.2841 	 78.1514 	 
H 	 5.65538 	 -15.6186 	 79.3521 	 
H 	 7.06425 	 -14.8338 	 79.7486 	 
H 	 -1.10825 	 -14.5693 	 80.8924 	 
H 	 3.27426 	 -10.1669 	 75.3921 	 
