34

S 	 -60.2329 	 27.0536 	 93.2907 	 
C 	 -59.2123 	 28.3884 	 93.8542 	 
C 	 -58.2604 	 27.8993 	 94.763 	 
C 	 -58.4156 	 26.5099 	 94.9715 	 
C 	 -59.3444 	 25.8785 	 94.2418 	 
H 	 -57.9434 	 25.9142 	 95.7073 	 
C 	 -57.1739 	 28.7104 	 95.3832 	 
H 	 -57.5266 	 29.7607 	 95.5955 	 
H 	 -56.4755 	 28.8868 	 94.5304 	 
C 	 -56.4179 	 28.2209 	 96.6633 	 
H 	 -57.1343 	 28.1182 	 97.3968 	 
H 	 -55.8339 	 27.3103 	 96.5076 	 
C 	 -55.3688 	 29.2172 	 97.0968 	 
H 	 -54.3958 	 29.1809 	 96.5607 	 
H 	 -55.8007 	 30.2181 	 97.1258 	 
H 	 -55.169 	 28.9758 	 98.1857 	 
S 	 -61.3759 	 24.0268 	 94.5792 	 
C 	 -60.9682 	 22.3264 	 94.6883 	 
C 	 -59.5951 	 22.0578 	 94.5413 	 
C 	 -58.8505 	 23.3117 	 94.4708 	 
C 	 -59.6892 	 24.4449 	 94.3933 	 
H 	 -59.2626 	 21.0228 	 94.387 	 
C 	 -57.3495 	 23.3295 	 94.1617 	 
H 	 -56.9249 	 22.93 	 95.056 	 
H 	 -57.0034 	 24.3957 	 94.1992 	 
C 	 -56.9146 	 22.5252 	 92.9222 	 
H 	 -57.2661 	 21.5107 	 93.0029 	 
H 	 -55.7909 	 22.5808 	 92.814 	 
C 	 -57.4475 	 23.0519 	 91.604 	 
H 	 -58.5106 	 23.0898 	 91.4631 	 
H 	 -57.1154 	 22.4389 	 90.7895 	 
H 	 -57.0987 	 24.1168 	 91.5212 	 
H 	 -59.3849 	 29.4207 	 93.5547 	 
H 	 -61.722 	 21.5187 	 94.6606 	 
