34

S 	 -9.62564 	 78.0318 	 48.9902 	 
C 	 -11.2507 	 78.7373 	 49.3005 	 
C 	 -12.1994 	 77.7584 	 49.3264 	 
C 	 -11.7273 	 76.4649 	 48.88 	 
C 	 -10.3765 	 76.4538 	 48.5987 	 
H 	 -12.3322 	 75.657 	 48.5599 	 
C 	 -13.6264 	 78.0882 	 49.5831 	 
H 	 -13.6025 	 78.8956 	 50.2715 	 
H 	 -14.0815 	 77.2906 	 50.205 	 
C 	 -14.4148 	 78.3847 	 48.3536 	 
H 	 -14.222 	 79.3321 	 47.8803 	 
H 	 -14.3376 	 77.5581 	 47.5602 	 
C 	 -15.9475 	 78.3833 	 48.6882 	 
H 	 -16.4087 	 77.469 	 49.1837 	 
H 	 -16.2045 	 79.1314 	 49.4075 	 
H 	 -16.4285 	 78.5562 	 47.6764 	 
S 	 -8.34621 	 74.6433 	 49.2064 	 
C 	 -8.11539 	 73.1773 	 48.2321 	 
C 	 -8.94753 	 73.2083 	 47.1261 	 
C 	 -9.75082 	 74.4145 	 47.0799 	 
C 	 -9.5882 	 75.3307 	 48.1373 	 
H 	 -9.06218 	 72.294 	 46.4727 	 
C 	 -10.8354 	 74.6201 	 46.1485 	 
H 	 -10.8039 	 75.6795 	 46.0758 	 
H 	 -11.7579 	 74.3572 	 46.6387 	 
C 	 -10.775 	 73.9491 	 44.753 	 
H 	 -10.9001 	 72.8623 	 44.8894 	 
H 	 -9.80108 	 74.1366 	 44.3042 	 
C 	 -11.8956 	 74.3168 	 43.7842 	 
H 	 -12.8533 	 74.2332 	 44.3028 	 
H 	 -11.9529 	 73.6725 	 42.9837 	 
H 	 -11.767 	 75.3815 	 43.419 	 
H 	 -11.5003 	 79.7982 	 49.4548 	 
H 	 -7.57228 	 72.3853 	 48.7311 	 
