34

S 	 -0.419146 	 80.4056 	 48.8733 	 
C 	 0.781348 	 80.3926 	 50.1427 	 
C 	 1.7218 	 79.416 	 49.8945 	 
C 	 1.41432 	 78.6403 	 48.7206 	 
C 	 0.226851 	 78.9928 	 48.1005 	 
H 	 1.97625 	 77.8461 	 48.2529 	 
C 	 2.94511 	 79.2846 	 50.7444 	 
H 	 2.72278 	 78.4729 	 51.5217 	 
H 	 3.03238 	 80.2765 	 51.2873 	 
C 	 4.30021 	 79.0744 	 49.9476 	 
H 	 5.1838 	 79.2648 	 50.6384 	 
H 	 4.31194 	 78.098 	 49.5333 	 
C 	 4.50364 	 79.9583 	 48.6994 	 
H 	 5.31438 	 79.6579 	 48.0341 	 
H 	 3.64559 	 79.8942 	 47.9967 	 
H 	 4.60621 	 80.9508 	 49.1655 	 
S 	 -1.57999 	 77.0812 	 47.5676 	 
C 	 -1.76186 	 76.5438 	 45.8699 	 
C 	 -0.886842 	 77.2029 	 45.0577 	 
C 	 -0.161261 	 78.1954 	 45.7164 	 
C 	 -0.352528 	 78.2059 	 47.0758 	 
H 	 -0.808742 	 76.9189 	 43.9696 	 
C 	 0.696786 	 79.2058 	 45.0134 	 
H 	 0.976983 	 79.9187 	 45.744 	 
H 	 0.0255799 	 79.7471 	 44.3886 	 
C 	 1.8765 	 78.74 	 44.1777 	 
H 	 2.11205 	 79.5422 	 43.4161 	 
H 	 1.51808 	 77.9305 	 43.4935 	 
C 	 3.15137 	 78.5261 	 44.9715 	 
H 	 2.9195 	 77.7636 	 45.7349 	 
H 	 3.51319 	 79.3934 	 45.5251 	 
H 	 3.90193 	 78.1038 	 44.3513 	 
H 	 0.934762 	 81.0479 	 50.9764 	 
H 	 -2.32999 	 75.6789 	 45.6394 	 
