34

S 	 -8.13852 	 9.08869 	 85.8538 	 
C 	 -7.55856 	 7.89895 	 87.0556 	 
C 	 -8.59853 	 7.32145 	 87.7564 	 
C 	 -9.88338 	 7.73549 	 87.2499 	 
C 	 -9.80525 	 8.64251 	 86.144 	 
H 	 -10.8354 	 7.4902 	 87.6213 	 
C 	 -8.40051 	 6.3363 	 88.867 	 
H 	 -9.10008 	 6.3719 	 89.7423 	 
H 	 -7.49814 	 6.61773 	 89.4262 	 
C 	 -8.03946 	 4.95094 	 88.3415 	 
H 	 -8.90474 	 4.54566 	 87.8194 	 
H 	 -7.36776 	 5.15929 	 87.4524 	 
C 	 -7.28921 	 3.95314 	 89.3755 	 
H 	 -7.96114 	 3.66039 	 90.1739 	 
H 	 -6.81187 	 3.19295 	 88.7148 	 
H 	 -6.4433 	 4.51577 	 89.8584 	 
S 	 -11.0285 	 10.8049 	 85.1164 	 
C 	 -12.2734 	 10.6441 	 83.9114 	 
C 	 -12.7091 	 9.32836 	 83.8585 	 
C 	 -11.9151 	 8.41551 	 84.6823 	 
C 	 -10.8513 	 9.11745 	 85.2516 	 
H 	 -13.5704 	 9.04883 	 83.2967 	 
C 	 -12.3942 	 7.05244 	 85.0971 	 
H 	 -13.4551 	 6.99109 	 84.8087 	 
H 	 -12.2854 	 6.95436 	 86.1542 	 
C 	 -12.0352 	 5.88326 	 84.1431 	 
H 	 -12.4225 	 6.19125 	 83.1696 	 
H 	 -12.4621 	 4.93152 	 84.4117 	 
C 	 -10.5456 	 5.76467 	 83.8384 	 
H 	 -10.0771 	 6.71165 	 83.6649 	 
H 	 -10.5267 	 5.21496 	 82.954 	 
H 	 -10.0023 	 5.29407 	 84.6521 	 
H 	 -6.50445 	 7.73578 	 87.4477 	 
H 	 -12.8246 	 11.4967 	 83.6353 	 
