34

S 	 8.93876 	 21.7466 	 41.4436 	 
C 	 8.13985 	 21.0063 	 42.8134 	 
C 	 9.01286 	 20.7384 	 43.8492 	 
C 	 10.2898 	 21.2043 	 43.5356 	 
C 	 10.4679 	 21.9367 	 42.3787 	 
H 	 11.132 	 21.2609 	 44.2192 	 
C 	 8.63916 	 20.1679 	 45.1935 	 
H 	 7.57848 	 20.1244 	 45.3702 	 
H 	 8.90396 	 20.8719 	 45.9993 	 
C 	 9.33364 	 18.8437 	 45.5352 	 
H 	 10.3683 	 19.0643 	 45.3379 	 
H 	 9.12878 	 18.6023 	 46.6309 	 
C 	 8.83553 	 17.6723 	 44.7893 	 
H 	 8.4621 	 17.9143 	 43.8064 	 
H 	 9.67622 	 16.9386 	 44.66 	 
H 	 7.91207 	 17.2796 	 45.2579 	 
S 	 12.7481 	 23.3749 	 43.0409 	 
C 	 13.9513 	 23.6669 	 41.8253 	 
C 	 13.513 	 23.2946 	 40.5579 	 
C 	 12.2453 	 22.5928 	 40.5795 	 
C 	 11.6994 	 22.5312 	 41.8693 	 
H 	 14.2364 	 23.6337 	 39.7642 	 
C 	 11.6363 	 22.0613 	 39.2837 	 
H 	 10.9948 	 21.2506 	 39.5619 	 
H 	 12.3386 	 21.6353 	 38.6556 	 
C 	 10.9073 	 23.2009 	 38.4834 	 
H 	 11.6227 	 23.9284 	 38.1556 	 
H 	 10.1823 	 23.6769 	 39.0904 	 
C 	 10.2785 	 22.6295 	 37.1879 	 
H 	 9.60822 	 21.8192 	 37.408 	 
H 	 11.0183 	 22.2627 	 36.4985 	 
H 	 9.73155 	 23.4033 	 36.7208 	 
H 	 7.14568 	 20.5757 	 42.9004 	 
H 	 14.8543 	 24.2283 	 42.0134 	 
