34

S 	 14.251 	 22.8723 	 62.6435 	 
C 	 14.5361 	 21.3527 	 63.4915 	 
C 	 13.3593 	 20.8526 	 63.9736 	 
C 	 12.3244 	 21.8393 	 63.9771 	 
C 	 12.6032 	 22.9959 	 63.259 	 
H 	 11.3316 	 21.7063 	 64.3465 	 
C 	 13.0981 	 19.4594 	 64.5707 	 
H 	 13.7296 	 18.7985 	 63.9746 	 
H 	 12.1329 	 19.1292 	 64.2449 	 
C 	 13.3967 	 19.2032 	 66.0444 	 
H 	 13.4374 	 18.1343 	 66.3727 	 
H 	 14.3946 	 19.5267 	 66.1633 	 
C 	 12.515 	 20.0477 	 66.9858 	 
H 	 11.4734 	 19.7026 	 66.917 	 
H 	 12.8145 	 19.9402 	 68.0286 	 
H 	 12.4518 	 21.0805 	 66.7724 	 
S 	 12.6363 	 25.7083 	 63.8507 	 
C 	 11.1199 	 26.5408 	 64.07 	 
C 	 10.1223 	 25.7349 	 63.5898 	 
C 	 10.4719 	 24.4176 	 63.2003 	 
C 	 11.8359 	 24.2389 	 63.3451 	 
H 	 9.15251 	 26.2439 	 63.4681 	 
C 	 9.40736 	 23.399 	 62.8352 	 
H 	 8.66353 	 23.4647 	 63.6359 	 
H 	 9.89741 	 22.4383 	 62.7855 	 
C 	 8.78949 	 23.6751 	 61.4175 	 
H 	 9.43485 	 23.325 	 60.573 	 
H 	 8.58589 	 24.7784 	 61.312 	 
C 	 7.52731 	 22.834 	 61.1369 	 
H 	 7.39801 	 22.5978 	 60.0691 	 
H 	 6.73562 	 23.5608 	 61.3631 	 
H 	 7.50317 	 22.0278 	 61.7973 	 
H 	 15.4118 	 20.764 	 63.4825 	 
H 	 11.0978 	 27.6191 	 64.3197 	 
