34

S 	 -31.4497 	 31.4941 	 44.9833 	 
C 	 -30.7595 	 30.0827 	 45.8248 	 
C 	 -31.7301 	 29.3275 	 46.4422 	 
C 	 -33.03 	 29.9148 	 46.2937 	 
C 	 -33.0054 	 31.125 	 45.6168 	 
H 	 -33.9284 	 29.6724 	 46.8356 	 
C 	 -31.3902 	 28.1908 	 47.4189 	 
H 	 -30.362 	 28.1077 	 47.4084 	 
H 	 -31.8541 	 27.32 	 47.0341 	 
C 	 -31.8141 	 28.368 	 48.9223 	 
H 	 -32.9088 	 28.5985 	 49.112 	 
H 	 -31.482 	 27.4025 	 49.4455 	 
C 	 -31.0794 	 29.6135 	 49.5213 	 
H 	 -30.0333 	 29.6079 	 49.1548 	 
H 	 -31.4149 	 30.6226 	 49.3177 	 
H 	 -31.1482 	 29.5837 	 50.6113 	 
S 	 -33.5246 	 33.817 	 45.9422 	 
C 	 -35.1647 	 34.4273 	 45.7508 	 
C 	 -36.0074 	 33.379 	 45.442 	 
C 	 -35.4108 	 32.1034 	 45.3455 	 
C 	 -34.052 	 32.1384 	 45.6052 	 
H 	 -37.1001 	 33.6203 	 45.2731 	 
C 	 -36.2549 	 30.8886 	 45.0558 	 
H 	 -37.2979 	 31.1408 	 45.0599 	 
H 	 -36.2029 	 30.2761 	 45.95 	 
C 	 -35.8459 	 30.119 	 43.8217 	 
H 	 -34.764 	 29.9862 	 43.9153 	 
H 	 -36.0629 	 30.7598 	 42.9901 	 
C 	 -36.5116 	 28.7694 	 43.7602 	 
H 	 -36.1472 	 28.368 	 42.8494 	 
H 	 -37.6284 	 28.8367 	 43.7112 	 
H 	 -36.2221 	 28.2366 	 44.6151 	 
H 	 -29.6329 	 29.9615 	 45.8108 	 
H 	 -35.5012 	 35.4278 	 45.7264 	 
