34

S 	 60.9504 	 15.1197 	 79.2549 	 
C 	 62.4915 	 15.8093 	 79.4701 	 
C 	 63.1827 	 15.9616 	 78.2384 	 
C 	 62.2861 	 15.682 	 77.145 	 
C 	 61.0175 	 15.3474 	 77.5636 	 
H 	 62.324 	 15.7907 	 76.0369 	 
C 	 64.5865 	 16.4631 	 78.0359 	 
H 	 65.1577 	 15.9443 	 78.7712 	 
H 	 64.5835 	 17.5984 	 78.1127 	 
C 	 65.223 	 16.0734 	 76.6794 	 
H 	 64.7012 	 16.6262 	 75.9284 	 
H 	 66.2514 	 16.4421 	 76.6763 	 
C 	 65.207 	 14.594 	 76.422 	 
H 	 64.2641 	 14.1127 	 76.6373 	 
H 	 65.5557 	 14.2511 	 75.4931 	 
H 	 65.871 	 14.1123 	 77.1326 	 
S 	 59.3012 	 13.5649 	 76.4016 	 
C 	 58.0079 	 14.1542 	 75.4165 	 
C 	 58.0452 	 15.5005 	 75.1213 	 
C 	 59.0655 	 16.1631 	 75.8899 	 
C 	 59.8068 	 15.2224 	 76.6568 	 
H 	 57.3136 	 15.9521 	 74.4394 	 
C 	 59.3834 	 17.6106 	 75.7481 	 
H 	 59.0384 	 17.8187 	 74.7323 	 
H 	 60.4791 	 17.7881 	 75.7241 	 
C 	 58.5296 	 18.4144 	 76.7137 	 
H 	 57.4734 	 18.1235 	 76.6465 	 
H 	 58.6004 	 19.3936 	 76.4014 	 
C 	 58.8966 	 18.2787 	 78.2414 	 
H 	 59.9451 	 18.0618 	 78.4755 	 
H 	 58.3704 	 17.4811 	 78.7815 	 
H 	 58.5926 	 19.2542 	 78.6986 	 
H 	 62.9513 	 16.1214 	 80.3554 	 
H 	 57.1393 	 13.4908 	 75.1351 	 
