34

S 	 -39.7957 	 33.2511 	 88.3287 	 
C 	 -41.1431 	 34.0575 	 89.089 	 
C 	 -42.2261 	 33.2099 	 89.2536 	 
C 	 -41.9247 	 31.9124 	 88.7421 	 
C 	 -40.6704 	 31.7569 	 88.1022 	 
H 	 -42.6427 	 31.0737 	 88.8115 	 
C 	 -43.549 	 33.6638 	 89.7359 	 
H 	 -43.1947 	 34.3283 	 90.5823 	 
H 	 -44.0361 	 32.7295 	 90.0753 	 
C 	 -44.4611 	 34.3724 	 88.7366 	 
H 	 -45.2568 	 34.7491 	 89.4137 	 
H 	 -43.9347 	 35.3168 	 88.4402 	 
C 	 -45.0536 	 33.5433 	 87.6143 	 
H 	 -44.3133 	 33.0791 	 86.9831 	 
H 	 -45.658 	 32.6993 	 88.0122 	 
H 	 -45.7386 	 34.0245 	 86.9483 	 
S 	 -39.7699 	 30.4683 	 85.8929 	 
C 	 -38.9825 	 28.8967 	 86.059 	 
C 	 -39.1137 	 28.389 	 87.3549 	 
C 	 -39.7654 	 29.3117 	 88.2058 	 
C 	 -40.149 	 30.5107 	 87.5846 	 
H 	 -38.7496 	 27.3305 	 87.5257 	 
C 	 -39.7644 	 29.1067 	 89.7389 	 
H 	 -40.1921 	 30.0114 	 90.1415 	 
H 	 -38.7171 	 29.0821 	 90.0934 	 
C 	 -40.6235 	 27.8842 	 90.1822 	 
H 	 -40.4466 	 27.6665 	 91.2119 	 
H 	 -40.3618 	 26.9088 	 89.7451 	 
C 	 -42.1226 	 27.9265 	 89.7639 	 
H 	 -42.524 	 28.9206 	 89.7735 	 
H 	 -42.7716 	 27.4007 	 90.4038 	 
H 	 -42.3181 	 27.4234 	 88.7901 	 
H 	 -41.1755 	 35.0858 	 89.4291 	 
H 	 -38.5314 	 28.524 	 85.1548 	 
