34

S 	 8.05236 	 20.3788 	 39.0584 	 
C 	 7.96734 	 18.6097 	 39.0938 	 
C 	 8.17033 	 18.1849 	 40.3994 	 
C 	 8.03315 	 19.2225 	 41.3829 	 
C 	 7.97875 	 20.46 	 40.8397 	 
H 	 8.08734 	 19.0787 	 42.4805 	 
C 	 8.35316 	 16.7315 	 40.763 	 
H 	 7.9966 	 16.0566 	 40.0216 	 
H 	 7.72862 	 16.4771 	 41.5977 	 
C 	 9.82007 	 16.3127 	 40.951 	 
H 	 10.3989 	 16.3282 	 39.9319 	 
H 	 10.3247 	 16.9711 	 41.5955 	 
C 	 9.90489 	 14.851 	 41.4593 	 
H 	 10.9316 	 14.4072 	 41.5469 	 
H 	 9.39152 	 14.779 	 42.4706 	 
H 	 9.22081 	 14.0877 	 40.9498 	 
S 	 6.18841 	 22.4935 	 41.1845 	 
C 	 6.43088 	 23.6272 	 42.5225 	 
C 	 7.56501 	 23.2699 	 43.2401 	 
C 	 8.22699 	 22.1005 	 42.7361 	 
C 	 7.59123 	 21.6221 	 41.6521 	 
H 	 7.74226 	 23.7825 	 44.2254 	 
C 	 9.41242 	 21.4721 	 43.4535 	 
H 	 9.92564 	 20.7987 	 42.7672 	 
H 	 8.90217 	 20.893 	 44.1593 	 
C 	 10.4838 	 22.4906 	 44.1177 	 
H 	 9.97361 	 23.2085 	 44.798 	 
H 	 10.8088 	 23.0717 	 43.3194 	 
C 	 11.5694 	 21.7341 	 44.8764 	 
H 	 11.005 	 21.4895 	 45.7709 	 
H 	 12.42 	 22.4557 	 44.9842 	 
H 	 11.9152 	 20.7786 	 44.2975 	 
H 	 7.99969 	 17.9676 	 38.2564 	 
H 	 5.81327 	 24.4974 	 42.7054 	 
