34

S 	 -5.21292 	 13.0607 	 86.6635 	 
C 	 -6.18847 	 12.2997 	 85.3593 	 
C 	 -7.53171 	 12.2133 	 85.7156 	 
C 	 -7.80978 	 12.9882 	 86.9057 	 
C 	 -6.70417 	 13.6045 	 87.3919 	 
H 	 -8.80941 	 13.1838 	 87.3363 	 
C 	 -8.65881 	 11.5442 	 84.9746 	 
H 	 -8.60726 	 11.8466 	 83.9285 	 
H 	 -9.52616 	 11.989 	 85.5044 	 
C 	 -8.88432 	 10.0159 	 85.04 	 
H 	 -9.91111 	 9.84137 	 84.6725 	 
H 	 -8.1603 	 9.5639 	 84.372 	 
C 	 -8.82641 	 9.47996 	 86.4245 	 
H 	 -9.62159 	 9.88818 	 87.1181 	 
H 	 -8.89143 	 8.38026 	 86.5272 	 
H 	 -7.83974 	 9.8048 	 86.8264 	 
S 	 -7.23034 	 16.3217 	 87.8373 	 
C 	 -7.05907 	 16.9739 	 89.3926 	 
C 	 -6.65477 	 16.0025 	 90.2573 	 
C 	 -6.5128 	 14.7185 	 89.6737 	 
C 	 -6.64939 	 14.7196 	 88.3365 	 
H 	 -6.53254 	 16.289 	 91.3087 	 
C 	 -6.15559 	 13.4813 	 90.4592 	 
H 	 -5.10811 	 13.5579 	 90.6781 	 
H 	 -6.19851 	 12.5625 	 89.8956 	 
C 	 -7.05994 	 13.2304 	 91.7265 	 
H 	 -7.16613 	 14.1917 	 92.275 	 
H 	 -6.57179 	 12.3355 	 92.3474 	 
C 	 -8.46158 	 12.8204 	 91.4001 	 
H 	 -8.99952 	 12.6304 	 92.2687 	 
H 	 -8.47456 	 11.9432 	 90.7661 	 
H 	 -8.93966 	 13.579 	 90.7701 	 
H 	 -5.77031 	 11.9364 	 84.4644 	 
H 	 -7.09492 	 18.0136 	 89.6882 	 
