34

S 	 -13.3498 	 73.8904 	 50.2931 	 
C 	 -14.7825 	 74.4464 	 49.4506 	 
C 	 -15.5557 	 73.3807 	 49.0284 	 
C 	 -14.8908 	 72.1441 	 49.347 	 
C 	 -13.6602 	 72.2201 	 49.9989 	 
H 	 -15.25 	 71.1744 	 49.1755 	 
C 	 -16.9418 	 73.5463 	 48.4868 	 
H 	 -16.9048 	 73.9982 	 47.5273 	 
H 	 -17.4749 	 74.1818 	 49.1593 	 
C 	 -17.7634 	 72.2821 	 48.2972 	 
H 	 -17.2278 	 71.6535 	 47.5706 	 
H 	 -17.8305 	 71.8028 	 49.2716 	 
C 	 -19.1843 	 72.589 	 47.7152 	 
H 	 -19.7335 	 71.6492 	 47.5435 	 
H 	 -19.8091 	 73.1631 	 48.348 	 
H 	 -19.1024 	 73.2235 	 46.7765 	 
S 	 -12.1078 	 71.2393 	 52.1464 	 
C 	 -11.526 	 69.6815 	 52.1227 	 
C 	 -11.75 	 69.0953 	 50.8778 	 
C 	 -12.4862 	 69.8698 	 49.9878 	 
C 	 -12.7714 	 71.141 	 50.5148 	 
H 	 -11.4252 	 68.1085 	 50.7199 	 
C 	 -12.7964 	 69.4358 	 48.6093 	 
H 	 -11.8713 	 69.0648 	 48.2333 	 
H 	 -12.9019 	 70.2675 	 47.9069 	 
C 	 -14.0478 	 68.522 	 48.4395 	 
H 	 -14.7818 	 68.9256 	 49.1822 	 
H 	 -13.8369 	 67.4773 	 48.7261 	 
C 	 -14.6328 	 68.6469 	 47.0867 	 
H 	 -14.307 	 67.8241 	 46.4887 	 
H 	 -14.4658 	 69.5905 	 46.5021 	 
H 	 -15.6942 	 68.4385 	 47.0901 	 
H 	 -15.1108 	 75.4439 	 49.4433 	 
H 	 -11.1833 	 69.1695 	 52.9946 	 
