34

S 	 41.2017 	 13.7303 	 87.6622 	 
C 	 42.5638 	 14.7276 	 87.2347 	 
C 	 43.1632 	 14.2775 	 86.051 	 
C 	 42.7099 	 12.9508 	 85.6497 	 
C 	 41.619 	 12.5401 	 86.4343 	 
H 	 43.0797 	 12.3559 	 84.8511 	 
C 	 44.2629 	 14.997 	 85.309 	 
H 	 44.7745 	 14.3395 	 84.6512 	 
H 	 45.1555 	 15.2445 	 86.0154 	 
C 	 43.7408 	 16.1829 	 84.4218 	 
H 	 44.5876 	 16.5417 	 83.9378 	 
H 	 43.0273 	 15.9917 	 83.6273 	 
C 	 43.3349 	 17.3681 	 85.3164 	 
H 	 42.4228 	 17.1049 	 85.9235 	 
H 	 44.0304 	 17.7596 	 86.1577 	 
H 	 42.9838 	 18.2039 	 84.7193 	 
S 	 39.3746 	 11.3469 	 85.552 	 
C 	 39.0199 	 9.6433 	 85.9825 	 
C 	 40.1023 	 9.06237 	 86.63 	 
C 	 41.165 	 9.98213 	 86.9313 	 
C 	 40.888 	 11.2663 	 86.3805 	 
H 	 39.9244 	 8.07128 	 87.0546 	 
C 	 42.3542 	 9.56395 	 87.8403 	 
H 	 42.9071 	 10.536 	 87.7698 	 
H 	 42.9353 	 8.75942 	 87.375 	 
C 	 41.8749 	 9.41518 	 89.263 	 
H 	 41.1192 	 8.60608 	 89.329 	 
H 	 41.4098 	 10.3502 	 89.4866 	 
C 	 43.0472 	 9.16833 	 90.1846 	 
H 	 43.7169 	 9.92368 	 89.9467 	 
H 	 43.6157 	 8.24347 	 89.9356 	 
H 	 42.7083 	 9.21409 	 91.1652 	 
H 	 42.9168 	 15.5482 	 87.8152 	 
H 	 38.1689 	 9.05524 	 85.7802 	 
