34

S 	 -7.05424 	 78.0962 	 50.0883 	 
C 	 -5.49827 	 78.4654 	 49.4478 	 
C 	 -4.6943 	 77.3444 	 49.2488 	 
C 	 -5.42082 	 76.1822 	 49.6607 	 
C 	 -6.73856 	 76.3572 	 50.0603 	 
H 	 -5.14246 	 75.0922 	 49.7169 	 
C 	 -3.25134 	 77.2641 	 48.8632 	 
H 	 -3.01062 	 78.0657 	 48.2258 	 
H 	 -3.10936 	 76.4277 	 48.1179 	 
C 	 -2.30236 	 77.2434 	 50.0751 	 
H 	 -2.43186 	 78.1013 	 50.7141 	 
H 	 -2.62669 	 76.5385 	 50.8119 	 
C 	 -0.814769 	 77.3034 	 49.628 	 
H 	 -0.218716 	 77.7825 	 50.3488 	 
H 	 -0.350909 	 76.4085 	 49.3634 	 
H 	 -0.807477 	 77.9585 	 48.7053 	 
S 	 -8.81684 	 75.7161 	 51.7222 	 
C 	 -9.70755 	 74.1974 	 51.4727 	 
C 	 -9.10914 	 73.4898 	 50.4652 	 
C 	 -8.11675 	 74.163 	 49.7157 	 
C 	 -7.7531 	 75.3306 	 50.3475 	 
H 	 -9.57677 	 72.5474 	 50.301 	 
C 	 -7.55009 	 73.6422 	 48.4104 	 
H 	 -6.5367 	 73.3467 	 48.6166 	 
H 	 -7.46115 	 74.4627 	 47.7058 	 
C 	 -8.3256 	 72.5114 	 47.5927 	 
H 	 -7.94285 	 72.6391 	 46.5781 	 
H 	 -9.43578 	 72.7123 	 47.5561 	 
C 	 -8.05027 	 71.1358 	 48.1646 	 
H 	 -8.1855 	 71.0543 	 49.2722 	 
H 	 -6.97869 	 70.8036 	 48.0012 	 
H 	 -8.66858 	 70.4008 	 47.633 	 
H 	 -5.16731 	 79.5177 	 49.3458 	 
H 	 -10.4958 	 73.7559 	 52.1071 	 
