34

S 	 -75.5575 	 49.8697 	 137.48 	 
C 	 -76.4246 	 48.4062 	 138.106 	 
C 	 -77.7805 	 48.5599 	 137.851 	 
C 	 -78.1042 	 49.7569 	 137.226 	 
C 	 -77 	 50.6073 	 136.937 	 
H 	 -79.0097 	 50.1528 	 137 	 
C 	 -78.7846 	 47.4743 	 138.269 	 
H 	 -79.3096 	 47.5821 	 139.215 	 
H 	 -78.1569 	 46.6497 	 138.381 	 
C 	 -79.7284 	 47.1741 	 137.126 	 
H 	 -80.2036 	 48.0382 	 136.695 	 
H 	 -79.247 	 46.6181 	 136.294 	 
C 	 -80.9127 	 46.236 	 137.589 	 
H 	 -81.5035 	 46.6554 	 138.372 	 
H 	 -81.6425 	 45.9621 	 136.766 	 
H 	 -80.4974 	 45.3029 	 138.058 	 
S 	 -78.0806 	 52.0844 	 134.847 	 
C 	 -77.906 	 53.8264 	 134.822 	 
C 	 -77.0014 	 54.1478 	 135.787 	 
C 	 -76.64 	 53.1629 	 136.701 	 
C 	 -77.1521 	 51.9386 	 136.325 	 
H 	 -76.7809 	 55.1903 	 135.804 	 
C 	 -75.6122 	 53.443 	 137.811 	 
H 	 -74.5919 	 53.3256 	 137.418 	 
H 	 -75.7632 	 52.6087 	 138.48 	 
C 	 -75.7767 	 54.7769 	 138.658 	 
H 	 -75.7252 	 55.6469 	 138.078 	 
H 	 -74.9415 	 54.8077 	 139.299 	 
C 	 -77.0175 	 54.8107 	 139.504 	 
H 	 -77.1513 	 55.7092 	 140.192 	 
H 	 -77.0593 	 53.9492 	 140.192 	 
H 	 -77.8975 	 54.674 	 138.901 	 
H 	 -75.9541 	 47.6551 	 138.582 	 
H 	 -78.3435 	 54.4618 	 134.067 	 
