34

S 	 1.14274 	 -22.6897 	 63.6929 	 
C 	 1.68875 	 -22.6328 	 62.0861 	 
C 	 1.33161 	 -21.4926 	 61.4528 	 
C 	 0.692375 	 -20.5295 	 62.3342 	 
C 	 0.739463 	 -20.926 	 63.662 	 
H 	 0.26115 	 -19.6131 	 61.9069 	 
C 	 1.41932 	 -21.2732 	 59.94 	 
H 	 2.40403 	 -21.4019 	 59.501 	 
H 	 1.11739 	 -20.2455 	 59.7199 	 
C 	 0.450861 	 -22.1497 	 59.1773 	 
H 	 0.664261 	 -21.9772 	 58.1091 	 
H 	 0.728791 	 -23.2049 	 59.2745 	 
C 	 -1.04703 	 -22.0156 	 59.5219 	 
H 	 -1.65325 	 -21.1749 	 59.1968 	 
H 	 -1.54761 	 -23.0263 	 59.2961 	 
H 	 -1.04038 	 -21.8532 	 60.5503 	 
S 	 -0.958227 	 -21.6244 	 65.7339 	 
C 	 -2.00774 	 -20.3301 	 66.3985 	 
C 	 -1.60627 	 -19.098 	 65.8792 	 
C 	 -0.475084 	 -19.1864 	 65.0098 	 
C 	 -0.165496 	 -20.4755 	 64.6753 	 
H 	 -2.14111 	 -18.1848 	 66.1795 	 
C 	 0.0521754 	 -17.8785 	 64.3694 	 
H 	 -0.556957 	 -17.5307 	 63.5413 	 
H 	 1.09368 	 -18.2109 	 63.972 	 
C 	 0.240358 	 -16.6528 	 65.241 	 
H 	 -0.753573 	 -16.3512 	 65.6644 	 
H 	 0.479771 	 -15.7179 	 64.7178 	 
C 	 1.28782 	 -16.8351 	 66.3705 	 
H 	 2.23008 	 -17.1032 	 65.9499 	 
H 	 1.04173 	 -17.5718 	 67.2225 	 
H 	 1.45713 	 -15.9248 	 66.8712 	 
H 	 2.27809 	 -23.4905 	 61.6879 	 
H 	 -2.86262 	 -20.4791 	 67.0719 	 
