34

S 	 11.8675 	 -15.0163 	 78.7313 	 
C 	 11.3011 	 -16.7035 	 78.806 	 
C 	 10.3259 	 -16.806 	 77.8289 	 
C 	 10.1218 	 -15.6105 	 77.0713 	 
C 	 10.9696 	 -14.6113 	 77.3486 	 
H 	 9.31881 	 -15.5586 	 76.352 	 
C 	 9.35666 	 -18.0095 	 77.6573 	 
H 	 9.78651 	 -18.8929 	 77.1547 	 
H 	 8.53292 	 -17.6646 	 77.0841 	 
C 	 8.76261 	 -18.588 	 78.9103 	 
H 	 9.59794 	 -19.1347 	 79.3983 	 
H 	 8.57684 	 -17.6989 	 79.4317 	 
C 	 7.54323 	 -19.5674 	 78.7628 	 
H 	 7.71139 	 -20.3312 	 77.9707 	 
H 	 7.35578 	 -20.1936 	 79.6028 	 
H 	 6.67255 	 -18.9757 	 78.4604 	 
S 	 10.9374 	 -11.8921 	 77.5914 	 
C 	 11.3022 	 -10.8939 	 76.1698 	 
C 	 11.3296 	 -11.6862 	 75.0503 	 
C 	 11.3536 	 -13.0687 	 75.3436 	 
C 	 11.0532 	 -13.3177 	 76.6677 	 
H 	 11.449 	 -11.253 	 74.0614 	 
C 	 11.5969 	 -14.1275 	 74.2193 	 
H 	 10.688 	 -14.0606 	 73.4611 	 
H 	 11.4515 	 -15.0316 	 74.7073 	 
C 	 12.8456 	 -13.9719 	 73.304 	 
H 	 13.7969 	 -13.9973 	 73.8862 	 
H 	 12.7542 	 -12.9193 	 72.8356 	 
C 	 12.7798 	 -15.1202 	 72.321 	 
H 	 12.4849 	 -16.0984 	 72.7052 	 
H 	 13.6802 	 -15.2843 	 71.7891 	 
H 	 12.1205 	 -14.7166 	 71.4871 	 
H 	 11.5127 	 -17.4842 	 79.5389 	 
H 	 11.5351 	 -9.80979 	 76.1973 	 
