34

S 	 33.0032 	 0.258195 	 68.6283 	 
C 	 33.3934 	 0.794702 	 70.2864 	 
C 	 32.637 	 0.053262 	 71.1765 	 
C 	 31.8025 	 -0.915279 	 70.5441 	 
C 	 32.0357 	 -1.06695 	 69.179 	 
H 	 30.9789 	 -1.51587 	 70.9584 	 
C 	 32.3218 	 0.440738 	 72.6847 	 
H 	 31.6821 	 -0.366858 	 73.0843 	 
H 	 31.7931 	 1.29639 	 72.661 	 
C 	 33.5673 	 0.532173 	 73.5894 	 
H 	 34.0453 	 1.41406 	 73.2326 	 
H 	 33.1885 	 0.819548 	 74.5859 	 
C 	 34.6282 	 -0.573892 	 73.526 	 
H 	 35.1377 	 -0.87066 	 72.597 	 
H 	 35.4361 	 -0.322851 	 74.2741 	 
H 	 34.2107 	 -1.52943 	 73.8784 	 
S 	 30.6829 	 -1.37535 	 66.8108 	 
C 	 30.1315 	 -2.99023 	 66.3777 	 
C 	 30.5614 	 -3.92385 	 67.2952 	 
C 	 31.2556 	 -3.43349 	 68.4132 	 
C 	 31.4812 	 -2.03794 	 68.2644 	 
H 	 30.336 	 -4.94802 	 67.0757 	 
C 	 31.6926 	 -4.30705 	 69.544 	 
H 	 30.8415 	 -4.88789 	 69.8516 	 
H 	 32.0463 	 -3.62747 	 70.2938 	 
C 	 32.9523 	 -5.21044 	 69.2645 	 
H 	 33.7788 	 -4.64825 	 68.8591 	 
H 	 32.6926 	 -5.9763 	 68.501 	 
C 	 33.4008 	 -5.80813 	 70.5263 	 
H 	 34.2851 	 -6.32029 	 70.2605 	 
H 	 32.7145 	 -6.5298 	 70.9916 	 
H 	 33.7634 	 -4.99056 	 71.1812 	 
H 	 33.9662 	 1.67095 	 70.4734 	 
H 	 29.6338 	 -3.40019 	 65.4876 	 
