34

S 	 -98.3179 	 51.6815 	 124.656 	 
C 	 -97.474 	 52.3034 	 123.241 	 
C 	 -98.3147 	 52.4972 	 122.172 	 
C 	 -99.6659 	 52.1248 	 122.508 	 
C 	 -99.8346 	 51.622 	 123.822 	 
H 	 -100.505 	 52.202 	 121.86 	 
C 	 -97.8961 	 53.0086 	 120.844 	 
H 	 -96.9871 	 53.588 	 121.064 	 
H 	 -98.6722 	 53.6504 	 120.408 	 
C 	 -97.3346 	 52.0147 	 119.798 	 
H 	 -96.4979 	 51.4736 	 120.202 	 
H 	 -98.0936 	 51.2523 	 119.559 	 
C 	 -96.9194 	 52.7303 	 118.554 	 
H 	 -96.7887 	 52.042 	 117.73 	 
H 	 -97.7214 	 53.3312 	 118.133 	 
H 	 -95.9457 	 53.2369 	 118.793 	 
S 	 -101.518 	 51.3992 	 125.947 	 
C 	 -103.037 	 50.4454 	 125.86 	 
C 	 -103.118 	 49.8709 	 124.6 	 
C 	 -102.007 	 50.1796 	 123.684 	 
C 	 -101.071 	 51.0098 	 124.309 	 
H 	 -104.018 	 49.35 	 124.346 	 
C 	 -101.876 	 49.5589 	 122.36 	 
H 	 -101.107 	 50.1446 	 121.815 	 
H 	 -102.894 	 49.5944 	 122.007 	 
C 	 -101.344 	 48.1286 	 122.308 	 
H 	 -101.242 	 48.0283 	 121.245 	 
H 	 -102.099 	 47.432 	 122.717 	 
C 	 -100.066 	 47.9249 	 123.148 	 
H 	 -99.6876 	 46.9201 	 122.969 	 
H 	 -100.213 	 48.0977 	 124.181 	 
H 	 -99.326 	 48.6623 	 122.846 	 
H 	 -96.4822 	 52.5476 	 123.151 	 
H 	 -103.776 	 50.3849 	 126.669 	 
