34

S 	 -18.4968 	 48.713 	 42.8444 	 
C 	 -19.0055 	 48.0409 	 41.3133 	 
C 	 -18.5538 	 46.7445 	 41.195 	 
C 	 -17.7369 	 46.3445 	 42.3012 	 
C 	 -17.4942 	 47.3643 	 43.1935 	 
H 	 -17.3151 	 45.4228 	 42.4833 	 
C 	 -18.9075 	 45.6894 	 40.0969 	 
H 	 -18.0319 	 45.6267 	 39.3912 	 
H 	 -19.6353 	 46.1676 	 39.4484 	 
C 	 -19.2986 	 44.2805 	 40.6085 	 
H 	 -18.5095 	 43.7577 	 41.1275 	 
H 	 -20.2757 	 44.2739 	 41.0764 	 
C 	 -19.685 	 43.363 	 39.4153 	 
H 	 -19.7537 	 42.2979 	 39.6727 	 
H 	 -20.6489 	 43.7397 	 39.0772 	 
H 	 -18.8375 	 43.4787 	 38.7015 	 
S 	 -17.6291 	 47.5154 	 45.9831 	 
C 	 -16.1981 	 47.3648 	 46.9586 	 
C 	 -15.0912 	 47.1202 	 46.1509 	 
C 	 -15.3999 	 46.9514 	 44.734 	 
C 	 -16.7168 	 47.3039 	 44.4268 	 
H 	 -14.1957 	 46.9738 	 46.6758 	 
C 	 -14.2947 	 46.6877 	 43.7808 	 
H 	 -14.8302 	 46.8907 	 42.8479 	 
H 	 -14.0703 	 45.629 	 43.8523 	 
C 	 -13.0278 	 47.6399 	 43.7451 	 
H 	 -12.3017 	 47.1355 	 44.3584 	 
H 	 -13.2585 	 48.6201 	 44.1928 	 
C 	 -12.4315 	 47.9204 	 42.4056 	 
H 	 -11.5059 	 48.4373 	 42.404 	 
H 	 -13.107 	 48.5526 	 41.8963 	 
H 	 -12.4123 	 47.0169 	 41.8231 	 
H 	 -19.6754 	 48.486 	 40.5906 	 
H 	 -16.0567 	 47.4622 	 48.0424 	 
