34

S 	 53.9469 	 16.2584 	 50.6371 	 
C 	 53.2967 	 17.8845 	 50.4702 	 
C 	 52.9361 	 18.4452 	 51.6449 	 
C 	 53.1578 	 17.5568 	 52.7168 	 
C 	 53.6749 	 16.3302 	 52.3537 	 
H 	 52.8198 	 17.6407 	 53.7447 	 
C 	 52.1731 	 19.6902 	 51.8192 	 
H 	 52.1217 	 20.1037 	 50.845 	 
H 	 52.785 	 20.4138 	 52.3541 	 
C 	 50.7636 	 19.5352 	 52.3518 	 
H 	 50.1413 	 18.9388 	 51.6886 	 
H 	 50.6277 	 19.1401 	 53.3207 	 
C 	 50.0776 	 20.9862 	 52.2883 	 
H 	 50.6651 	 21.9092 	 52.5699 	 
H 	 50.0243 	 21.2389 	 51.2448 	 
H 	 49.0889 	 21.0427 	 52.6466 	 
S 	 55.3415 	 14.4164 	 53.1381 	 
C 	 55.0703 	 13.4389 	 54.5702 	 
C 	 53.7477 	 13.5271 	 54.9371 	 
C 	 53.072 	 14.6005 	 54.2544 	 
C 	 53.7929 	 15.2082 	 53.2024 	 
H 	 53.3381 	 12.9778 	 55.8017 	 
C 	 51.7005 	 15.0792 	 54.6685 	 
H 	 51.0803 	 14.7297 	 53.8365 	 
H 	 51.6674 	 16.1453 	 54.6298 	 
C 	 51.0504 	 14.5649 	 55.8891 	 
H 	 51.7498 	 14.8479 	 56.6964 	 
H 	 51.0177 	 13.4329 	 55.9929 	 
C 	 49.6913 	 14.9334 	 56.1531 	 
H 	 49.0724 	 14.631 	 55.3031 	 
H 	 49.5477 	 15.9899 	 56.3461 	 
H 	 49.3761 	 14.5104 	 57.0641 	 
H 	 53.3066 	 18.3649 	 49.5038 	 
H 	 55.8391 	 12.7804 	 54.9938 	 
