34

S 	 -12.9024 	 57.1726 	 58.0765 	 
C 	 -11.9202 	 56.4657 	 56.8173 	 
C 	 -10.577 	 56.4472 	 57.0385 	 
C 	 -10.2721 	 57.1445 	 58.2738 	 
C 	 -11.4048 	 57.7578 	 58.8493 	 
H 	 -9.26483 	 57.4304 	 58.7362 	 
C 	 -9.60536 	 55.9231 	 56.0421 	 
H 	 -8.60374 	 56.3893 	 56.1817 	 
H 	 -9.86379 	 56.2623 	 55.0382 	 
C 	 -9.35838 	 54.4355 	 56.1635 	 
H 	 -8.50225 	 54.1244 	 55.5266 	 
H 	 -9.00165 	 54.2531 	 57.2095 	 
C 	 -10.4865 	 53.4921 	 55.8019 	 
H 	 -10.7541 	 53.6104 	 54.7833 	 
H 	 -10.3497 	 52.4343 	 55.8372 	 
H 	 -11.3206 	 53.8021 	 56.398 	 
S 	 -12.3592 	 58.0211 	 61.4113 	 
C 	 -11.9941 	 59.4688 	 62.2651 	 
C 	 -11.118 	 60.22 	 61.6017 	 
C 	 -10.7355 	 59.7 	 60.3553 	 
C 	 -11.4771 	 58.6564 	 60.0392 	 
H 	 -10.6504 	 61.1896 	 61.9282 	 
C 	 -9.76373 	 60.4195 	 59.4715 	 
H 	 -10.2834 	 61.2843 	 59.0207 	 
H 	 -9.49375 	 59.793 	 58.5602 	 
C 	 -8.47213 	 60.8906 	 60.2545 	 
H 	 -8.57205 	 61.6879 	 60.9584 	 
H 	 -7.79743 	 61.2942 	 59.4931 	 
C 	 -7.63887 	 59.7961 	 60.9626 	 
H 	 -6.73942 	 60.1793 	 61.2499 	 
H 	 -7.49116 	 58.8917 	 60.4222 	 
H 	 -8.19991 	 59.5078 	 61.8215 	 
H 	 -12.2449 	 56.0272 	 55.9032 	 
H 	 -12.3233 	 59.782 	 63.2892 	 
