34

S 	 -6.15163 	 -14.1552 	 82.63 	 
C 	 -5.05778 	 -13.969 	 81.2598 	 
C 	 -3.96381 	 -13.2011 	 81.6245 	 
C 	 -4.02387 	 -12.7274 	 82.9514 	 
C 	 -5.15936 	 -13.096 	 83.6756 	 
H 	 -3.31173 	 -12.1612 	 83.4594 	 
C 	 -2.79992 	 -12.7546 	 80.7594 	 
H 	 -2.6606 	 -11.6274 	 80.726 	 
H 	 -2.95295 	 -12.8893 	 79.6778 	 
C 	 -1.54688 	 -13.5662 	 81.1108 	 
H 	 -1.31036 	 -13.7931 	 82.1476 	 
H 	 -1.66249 	 -14.5934 	 80.6569 	 
C 	 -0.336951 	 -12.9398 	 80.4563 	 
H 	 -0.60145 	 -12.6009 	 79.4378 	 
H 	 -0.0611217 	 -11.9737 	 80.8605 	 
H 	 0.536666 	 -13.635 	 80.422 	 
S 	 -5.91287 	 -14.179 	 86.0644 	 
C 	 -5.72969 	 -13.2703 	 87.5085 	 
C 	 -5.36975 	 -11.9556 	 87.2486 	 
C 	 -5.28176 	 -11.6728 	 85.8638 	 
C 	 -5.42238 	 -12.7831 	 85.0918 	 
H 	 -5.32123 	 -11.2984 	 88.0877 	 
C 	 -4.85073 	 -10.2847 	 85.4233 	 
H 	 -3.77034 	 -10.2967 	 85.1082 	 
H 	 -4.9608 	 -9.60797 	 86.2332 	 
C 	 -5.62001 	 -9.7474 	 84.1799 	 
H 	 -6.69223 	 -10.0082 	 84.1834 	 
H 	 -5.20435 	 -10.1576 	 83.3607 	 
C 	 -5.49598 	 -8.22099 	 83.9274 	 
H 	 -6.17184 	 -7.8894 	 84.6745 	 
H 	 -5.83424 	 -8.01497 	 82.9397 	 
H 	 -4.46848 	 -7.92829 	 84.0496 	 
H 	 -5.15768 	 -14.5061 	 80.3958 	 
H 	 -5.79856 	 -13.6486 	 88.4816 	 
