34

S 	 7.20862 	 -10.5222 	 92.8362 	 
C 	 9.01288 	 -10.4721 	 92.5984 	 
C 	 9.15748 	 -10.4423 	 91.2023 	 
C 	 8.01656 	 -10.719 	 90.3882 	 
C 	 6.8471 	 -10.694 	 91.1275 	 
H 	 8.121 	 -10.8944 	 89.3405 	 
C 	 10.4918 	 -10.4406 	 90.532 	 
H 	 10.4393 	 -11.0932 	 89.5652 	 
H 	 11.1401 	 -11.0722 	 91.1956 	 
C 	 11.0845 	 -9.02034 	 90.2181 	 
H 	 12.0108 	 -9.03124 	 89.6123 	 
H 	 10.4557 	 -8.51744 	 89.5062 	 
C 	 11.2989 	 -8.25681 	 91.5434 	 
H 	 11.3036 	 -7.24341 	 91.1311 	 
H 	 10.3459 	 -8.18569 	 92.153 	 
H 	 12.1362 	 -8.49765 	 92.1299 	 
S 	 4.57615 	 -12.1601 	 91.2896 	 
C 	 3.32103 	 -11.9471 	 90.0524 	 
C 	 3.52844 	 -10.7768 	 89.3356 	 
C 	 4.78618 	 -10.1992 	 89.6961 	 
C 	 5.5207 	 -10.925 	 90.5748 	 
H 	 2.91593 	 -10.6158 	 88.4199 	 
C 	 5.34011 	 -9.00573 	 88.8746 	 
H 	 4.8866 	 -8.8719 	 87.9091 	 
H 	 6.36688 	 -9.18755 	 88.5941 	 
C 	 5.23763 	 -7.62816 	 89.6229 	 
H 	 4.19251 	 -7.4322 	 89.652 	 
H 	 5.73837 	 -6.8044 	 89.038 	 
C 	 5.81431 	 -7.55498 	 91.0147 	 
H 	 5.149 	 -7.9368 	 91.8194 	 
H 	 5.99193 	 -6.51904 	 91.3739 	 
H 	 6.72257 	 -8.08212 	 91.0879 	 
H 	 9.84687 	 -10.3782 	 93.1955 	 
H 	 2.49637 	 -12.6641 	 90.0713 	 
