34

S 	 24.8923 	 10.3493 	 70.8101 	 
C 	 25.6405 	 11.5766 	 69.8743 	 
C 	 24.7285 	 12.498 	 69.419 	 
C 	 23.4088 	 12.224 	 69.8742 	 
C 	 23.3282 	 11.0896 	 70.6485 	 
H 	 22.5576 	 12.9124 	 69.8248 	 
C 	 25.128 	 13.6691 	 68.5856 	 
H 	 24.1678 	 14.0528 	 68.1223 	 
H 	 25.8057 	 13.3736 	 67.8286 	 
C 	 25.6769 	 14.8939 	 69.3915 	 
H 	 24.8369 	 15.3143 	 69.9747 	 
H 	 26.438 	 14.5592 	 70.1234 	 
C 	 26.2221 	 15.9612 	 68.4632 	 
H 	 27.1227 	 15.6089 	 67.9608 	 
H 	 25.4835 	 16.2375 	 67.6921 	 
H 	 26.5895 	 16.7703 	 69.0761 	 
S 	 22.0031 	 8.68336 	 70.987 	 
C 	 20.2688 	 8.62979 	 71.4435 	 
C 	 19.774 	 9.90833 	 71.3838 	 
C 	 20.7962 	 10.9417 	 71.2995 	 
C 	 22.0425 	 10.4541 	 71.0576 	 
H 	 18.6805 	 10.1297 	 71.4602 	 
C 	 20.3638 	 12.3926 	 71.4919 	 
H 	 19.2591 	 12.2977 	 71.681 	 
H 	 20.4398 	 13.0795 	 70.6457 	 
C 	 21.0151 	 13.1236 	 72.6554 	 
H 	 22.1158 	 13.1254 	 72.4973 	 
H 	 20.83 	 12.6523 	 73.58 	 
C 	 20.4823 	 14.5597 	 72.796 	 
H 	 19.4172 	 14.606 	 72.8773 	 
H 	 20.8314 	 15.1853 	 71.9032 	 
H 	 20.8431 	 14.9428 	 73.7642 	 
H 	 26.6624 	 11.5745 	 69.4468 	 
H 	 19.6042 	 7.8355 	 71.649 	 
