34

S 	 0.0866321 	 -13.9391 	 81.3477 	 
C 	 0.418905 	 -15.5661 	 81.6508 	 
C 	 -0.514746 	 -16.3823 	 81.1304 	 
C 	 -1.6385 	 -15.7074 	 80.5726 	 
C 	 -1.45563 	 -14.3611 	 80.6817 	 
H 	 -2.51783 	 -16.0666 	 80.0047 	 
C 	 -0.515078 	 -17.849 	 81.2862 	 
H 	 -1.52059 	 -18.2771 	 81.1751 	 
H 	 -0.25974 	 -18.0673 	 82.2882 	 
C 	 0.453159 	 -18.487 	 80.3103 	 
H 	 1.51317 	 -18.369 	 80.5854 	 
H 	 0.217873 	 -19.5159 	 80.4363 	 
C 	 0.126084 	 -18.3069 	 78.8488 	 
H 	 0.967987 	 -18.62 	 78.2191 	 
H 	 -0.791093 	 -18.7705 	 78.58 	 
H 	 0.0712808 	 -17.1986 	 78.7048 	 
S 	 -1.22975 	 -11.9644 	 79.5169 	 
C 	 -2.64506 	 -11.0731 	 79.113 	 
C 	 -3.80919 	 -11.7304 	 79.3802 	 
C 	 -3.6015 	 -13.0272 	 79.8251 	 
C 	 -2.28513 	 -13.3064 	 80.0888 	 
H 	 -4.77901 	 -11.2559 	 79.2636 	 
C 	 -4.71446 	 -14.0121 	 80.1019 	 
H 	 -5.44834 	 -13.5119 	 80.7724 	 
H 	 -4.17737 	 -14.5738 	 80.8147 	 
C 	 -5.2753 	 -14.7051 	 78.8294 	 
H 	 -4.49941 	 -15.2861 	 78.274 	 
H 	 -5.62941 	 -13.9112 	 78.1494 	 
C 	 -6.37082 	 -15.7335 	 79.1648 	 
H 	 -6.72922 	 -16.1185 	 78.2486 	 
H 	 -7.12989 	 -15.3413 	 79.8873 	 
H 	 -5.97196 	 -16.6524 	 79.5486 	 
H 	 1.44596 	 -15.9419 	 81.9957 	 
H 	 -2.63244 	 -10.0457 	 78.8276 	 
