34

S 	 -23.7104 	 -5.50633 	 95.6488 	 
C 	 -24.8008 	 -5.93204 	 96.963 	 
C 	 -24.7195 	 -4.95704 	 97.9932 	 
C 	 -23.6878 	 -4.0382 	 97.7291 	 
C 	 -22.9828 	 -4.2409 	 96.5499 	 
H 	 -23.3466 	 -3.37097 	 98.4867 	 
C 	 -25.4058 	 -5.03507 	 99.369 	 
H 	 -25.0848 	 -4.26913 	 100.019 	 
H 	 -25.1439 	 -5.98829 	 99.8033 	 
C 	 -26.9611 	 -5.103 	 99.2051 	 
H 	 -27.2349 	 -5.89145 	 98.4873 	 
H 	 -27.4235 	 -5.29942 	 100.122 	 
C 	 -27.6276 	 -3.80588 	 98.6681 	 
H 	 -27.3622 	 -2.90015 	 99.2058 	 
H 	 -27.4609 	 -3.66908 	 97.5836 	 
H 	 -28.688 	 -3.93906 	 98.8119 	 
S 	 -20.2757 	 -4.63983 	 96.3761 	 
C 	 -19.3173 	 -3.25321 	 95.8748 	 
C 	 -20.0644 	 -2.08908 	 95.5892 	 
C 	 -21.4682 	 -2.32666 	 95.749 	 
C 	 -21.7391 	 -3.66026 	 96.1557 	 
H 	 -19.5206 	 -1.17914 	 95.4257 	 
C 	 -22.4669 	 -1.23489 	 95.5929 	 
H 	 -23.389 	 -1.56809 	 95.7805 	 
H 	 -22.5163 	 -0.989271 	 94.4879 	 
C 	 -22.2721 	 -0.0646789 	 96.5351 	 
H 	 -21.1868 	 0.137943 	 96.5269 	 
H 	 -22.527 	 -0.338207 	 97.5668 	 
C 	 -23.1512 	 1.2456 	 96.1952 	 
H 	 -24.2025 	 0.968099 	 96.0905 	 
H 	 -22.813 	 1.65012 	 95.2204 	 
H 	 -22.9819 	 2.01605 	 96.8931 	 
H 	 -25.2827 	 -6.97129 	 96.9885 	 
H 	 -18.2278 	 -3.20647 	 95.9651 	 
