34

S 	 40.8916 	 19.8763 	 49.8005 	 
C 	 40.6364 	 18.1866 	 50.0769 	 
C 	 40.4743 	 17.4056 	 48.9131 	 
C 	 40.9387 	 18.1727 	 47.8213 	 
C 	 41.1446 	 19.5335 	 48.0864 	 
H 	 41.0141 	 17.8233 	 46.7729 	 
C 	 40.1535 	 15.8874 	 48.9478 	 
H 	 39.0956 	 15.7278 	 48.8305 	 
H 	 40.4704 	 15.5628 	 49.9743 	 
C 	 40.8184 	 15.0433 	 47.8691 	 
H 	 41.7833 	 15.2672 	 47.5622 	 
H 	 40.8924 	 14.0671 	 48.3412 	 
C 	 39.9463 	 14.9182 	 46.5704 	 
H 	 40.3946 	 14.4315 	 45.7032 	 
H 	 39.0457 	 14.3245 	 46.9365 	 
H 	 39.6433 	 15.8625 	 46.2311 	 
S 	 43.0706 	 21.4871 	 47.8065 	 
C 	 43.2598 	 22.3019 	 46.2794 	 
C 	 42.3269 	 21.8612 	 45.3695 	 
C 	 41.4125 	 20.8641 	 45.8502 	 
C 	 41.7515 	 20.4948 	 47.1758 	 
H 	 42.1816 	 22.3024 	 44.3876 	 
C 	 40.2448 	 20.3346 	 45.0836 	 
H 	 39.4608 	 21.0681 	 45.1329 	 
H 	 39.7482 	 19.5411 	 45.6333 	 
C 	 40.5161 	 19.6574 	 43.6759 	 
H 	 40.8943 	 20.4679 	 42.9241 	 
H 	 39.5658 	 19.2687 	 43.2944 	 
C 	 41.5126 	 18.4815 	 43.7051 	 
H 	 41.5793 	 18.0264 	 42.741 	 
H 	 41.0956 	 17.7384 	 44.3619 	 
H 	 42.5653 	 18.7783 	 43.9668 	 
H 	 40.3841 	 17.7902 	 51 	 
H 	 43.8893 	 23.2052 	 46.1674 	 
