34

S 	 19.0895 	 31.8674 	 55.9949 	 
C 	 18.3992 	 30.7663 	 57.1327 	 
C 	 17.9602 	 31.3915 	 58.2925 	 
C 	 18.056 	 32.8322 	 58.1344 	 
C 	 18.7821 	 33.1937 	 57.0158 	 
H 	 17.6592 	 33.6724 	 58.6995 	 
C 	 17.3189 	 30.8304 	 59.5574 	 
H 	 18.0963 	 30.2408 	 60.0707 	 
H 	 16.6047 	 30.0847 	 59.1796 	 
C 	 16.5143 	 31.7084 	 60.4856 	 
H 	 17.0515 	 32.5509 	 60.9361 	 
H 	 15.6989 	 32.1165 	 59.88 	 
C 	 15.8448 	 30.7437 	 61.5164 	 
H 	 15.293 	 31.4665 	 62.1519 	 
H 	 15.2145 	 30.0038 	 61.1361 	 
H 	 16.6261 	 30.3453 	 62.1022 	 
S 	 19.1393 	 34.89 	 54.9036 	 
C 	 19.6832 	 36.5403 	 55.2949 	 
C 	 19.8853 	 36.7378 	 56.5716 	 
C 	 19.4657 	 35.6534 	 57.3875 	 
C 	 19.1957 	 34.5179 	 56.6223 	 
H 	 20.1039 	 37.7801 	 56.7971 	 
C 	 19.4781 	 35.8457 	 58.8948 	 
H 	 20.3779 	 36.5001 	 59.1116 	 
H 	 19.6821 	 34.797 	 59.2483 	 
C 	 18.241 	 36.446 	 59.5383 	 
H 	 18.5058 	 36.4886 	 60.6391 	 
H 	 17.4249 	 35.7328 	 59.5381 	 
C 	 17.7541 	 37.7629 	 58.9401 	 
H 	 18.5867 	 38.4244 	 58.8907 	 
H 	 17.0152 	 38.1832 	 59.661 	 
H 	 17.3588 	 37.7251 	 57.9505 	 
H 	 18.1926 	 29.6649 	 56.9568 	 
H 	 19.7553 	 37.3348 	 54.5574 	 
