34

S 	 -116.589 	 45.7669 	 135.007 	 
C 	 -116.735 	 45.8701 	 133.331 	 
C 	 -115.807 	 46.7534 	 132.763 	 
C 	 -114.946 	 47.3676 	 133.719 	 
C 	 -115.345 	 46.9667 	 135.028 	 
H 	 -114.217 	 48.0702 	 133.657 	 
C 	 -115.543 	 46.9084 	 131.25 	 
H 	 -115.093 	 47.8447 	 130.998 	 
H 	 -116.461 	 46.8457 	 130.77 	 
C 	 -114.554 	 45.933 	 130.548 	 
H 	 -114.66 	 46.0488 	 129.432 	 
H 	 -113.542 	 46.3442 	 130.853 	 
C 	 -114.523 	 44.4779 	 131.012 	 
H 	 -115.47 	 43.9967 	 130.85 	 
H 	 -113.752 	 43.8997 	 130.424 	 
H 	 -114.134 	 44.3377 	 132.007 	 
S 	 -115.495 	 48.6085 	 137.305 	 
C 	 -114.058 	 48.7106 	 138.322 	 
C 	 -113.186 	 47.7131 	 137.953 	 
C 	 -113.517 	 46.9759 	 136.798 	 
C 	 -114.736 	 47.381 	 136.281 	 
H 	 -112.292 	 47.5749 	 138.526 	 
C 	 -112.659 	 45.854 	 136.224 	 
H 	 -111.924 	 46.3466 	 135.505 	 
H 	 -113.343 	 45.2516 	 135.609 	 
C 	 -112.099 	 44.8838 	 137.302 	 
H 	 -113.003 	 44.3824 	 137.672 	 
H 	 -111.767 	 45.2932 	 138.195 	 
C 	 -111.217 	 43.73 	 136.863 	 
H 	 -110.983 	 43.0768 	 137.782 	 
H 	 -110.278 	 44.0589 	 136.531 	 
H 	 -111.691 	 43.1404 	 136.067 	 
H 	 -117.342 	 45.2458 	 132.654 	 
H 	 -113.839 	 49.2754 	 139.251 	 
