34

S 	 44.7548 	 20.6464 	 46.541 	 
C 	 43.1813 	 20.5682 	 45.7311 	 
C 	 42.1012 	 20.6827 	 46.5723 	 
C 	 42.5659 	 20.8202 	 47.9428 	 
C 	 43.9552 	 20.8655 	 48.0813 	 
H 	 42.0148 	 20.8072 	 48.7957 	 
C 	 40.6052 	 20.5023 	 46.1275 	 
H 	 40.6161 	 19.8469 	 45.1905 	 
H 	 40.5016 	 21.4601 	 45.7192 	 
C 	 39.5874 	 20.3796 	 47.2042 	 
H 	 39.5911 	 21.134 	 47.9771 	 
H 	 38.6091 	 20.5719 	 46.6697 	 
C 	 39.4328 	 18.8831 	 47.7859 	 
H 	 38.505 	 18.9262 	 48.3947 	 
H 	 39.2556 	 18.1287 	 47.1436 	 
H 	 40.1971 	 18.6857 	 48.493 	 
S 	 45.8217 	 22.1467 	 49.7087 	 
C 	 46.168 	 21.5704 	 51.3648 	 
C 	 45.6269 	 20.3067 	 51.4478 	 
C 	 44.6922 	 19.906 	 50.3775 	 
C 	 44.6394 	 20.8855 	 49.3814 	 
H 	 45.7889 	 19.7861 	 52.3829 	 
C 	 43.9578 	 18.5778 	 50.3812 	 
H 	 44.6623 	 17.8669 	 49.9874 	 
H 	 43.0435 	 18.6128 	 49.6999 	 
C 	 43.494 	 18.0426 	 51.7785 	 
H 	 44.3359 	 17.9888 	 52.4936 	 
H 	 43.1703 	 16.9507 	 51.7035 	 
C 	 42.344 	 18.893 	 52.2722 	 
H 	 42.0836 	 18.5458 	 53.2595 	 
H 	 41.4913 	 18.7186 	 51.5827 	 
H 	 42.5763 	 19.9493 	 52.2477 	 
H 	 42.9843 	 20.6025 	 44.6656 	 
H 	 46.9805 	 21.9781 	 51.9713 	 
