34

S 	 -78.606 	 45.2068 	 140.925 	 
C 	 -79.225 	 43.5679 	 141.086 	 
C 	 -79.5044 	 42.9848 	 139.832 	 
C 	 -79.1531 	 43.8865 	 138.745 	 
C 	 -78.911 	 45.1715 	 139.172 	 
H 	 -79.1011 	 43.6464 	 137.724 	 
C 	 -79.8905 	 41.5581 	 139.576 	 
H 	 -80.6201 	 41.632 	 138.738 	 
H 	 -80.3996 	 41.186 	 140.432 	 
C 	 -78.7322 	 40.5181 	 139.459 	 
H 	 -77.9463 	 40.7578 	 140.186 	 
H 	 -79.1119 	 39.5302 	 139.737 	 
C 	 -77.9682 	 40.5612 	 138.105 	 
H 	 -77.163 	 39.8337 	 138.277 	 
H 	 -78.7622 	 40.3504 	 137.373 	 
H 	 -77.5188 	 41.5053 	 137.752 	 
S 	 -79.4571 	 47.237 	 137.349 	 
C 	 -78.1583 	 48.1468 	 136.762 	 
C 	 -76.9641 	 47.5927 	 137.103 	 
C 	 -77.0443 	 46.587 	 138.094 	 
C 	 -78.3738 	 46.2557 	 138.36 	 
H 	 -76.0204 	 47.8938 	 136.644 	 
C 	 -75.8268 	 45.9434 	 138.701 	 
H 	 -75.9499 	 45.7421 	 139.717 	 
H 	 -75.0943 	 46.7273 	 138.751 	 
C 	 -75.3759 	 44.7098 	 137.884 	 
H 	 -76.0602 	 43.8131 	 138.04 	 
H 	 -74.4244 	 44.3206 	 138.284 	 
C 	 -75.0551 	 44.9007 	 136.32 	 
H 	 -74.2494 	 45.6046 	 136.248 	 
H 	 -75.7791 	 45.2796 	 135.648 	 
H 	 -74.5867 	 43.917 	 135.909 	 
H 	 -79.3605 	 43.1932 	 142.06 	 
H 	 -78.1761 	 48.9062 	 136.05 	 
