34

S 	 -39.7038 	 49.6658 	 103.871 	 
C 	 -37.9993 	 49.6117 	 103.699 	 
C 	 -37.5001 	 50.8001 	 103.126 	 
C 	 -38.5319 	 51.6566 	 102.668 	 
C 	 -39.7879 	 51.1641 	 103.037 	 
H 	 -38.4057 	 52.6436 	 102.258 	 
C 	 -36.055 	 51.1814 	 102.812 	 
H 	 -35.5813 	 51.5508 	 103.762 	 
H 	 -35.9775 	 52.0258 	 102.17 	 
C 	 -35.0979 	 50.0242 	 102.435 	 
H 	 -34.1187 	 50.4029 	 102.091 	 
H 	 -34.9132 	 49.4132 	 103.342 	 
C 	 -35.712 	 49.1676 	 101.351 	 
H 	 -36.2241 	 49.8522 	 100.645 	 
H 	 -34.9262 	 48.5753 	 100.905 	 
H 	 -36.4564 	 48.4894 	 101.786 	 
S 	 -41.9484 	 52.0538 	 104.395 	 
C 	 -43.2098 	 53.0265 	 103.664 	 
C 	 -42.7899 	 53.3599 	 102.389 	 
C 	 -41.6766 	 52.5978 	 101.976 	 
C 	 -41.0523 	 51.7834 	 102.941 	 
H 	 -43.321 	 54.0987 	 101.802 	 
C 	 -41.1908 	 52.7792 	 100.576 	 
H 	 -40.2476 	 53.3791 	 100.519 	 
H 	 -41.8646 	 53.4611 	 100.094 	 
C 	 -40.8487 	 51.5066 	 99.8193 	 
H 	 -39.9352 	 51.0529 	 100.193 	 
H 	 -40.7207 	 51.6461 	 98.7771 	 
C 	 -41.9305 	 50.4166 	 99.8884 	 
H 	 -41.8485 	 49.94 	 100.859 	 
H 	 -41.663 	 49.6105 	 99.239 	 
H 	 -42.9793 	 50.733 	 99.5631 	 
H 	 -37.4103 	 48.8581 	 104.031 	 
H 	 -44.0955 	 53.2851 	 104.165 	 
