34

S 	 49.2778 	 23.9285 	 43.3774 	 
C 	 47.9109 	 24.4871 	 42.3894 	 
C 	 47.1797 	 25.523 	 42.9467 	 
C 	 47.5082 	 25.6411 	 44.3252 	 
C 	 48.5526 	 24.8408 	 44.7628 	 
H 	 46.9592 	 26.2782 	 45.0398 	 
C 	 45.9555 	 26.2936 	 42.2844 	 
H 	 46.023 	 26.3718 	 41.2068 	 
H 	 46.0163 	 27.3086 	 42.6746 	 
C 	 44.5158 	 25.8335 	 42.8681 	 
H 	 44.5089 	 25.624 	 43.9721 	 
H 	 43.7034 	 26.5686 	 42.6854 	 
C 	 44.014 	 24.5125 	 42.16 	 
H 	 43.0304 	 24.1495 	 42.3136 	 
H 	 44.1522 	 24.5608 	 41.1368 	 
H 	 44.7439 	 23.7107 	 42.4636 	 
S 	 50.743 	 24.6012 	 46.437 	 
C 	 50.5251 	 24.3905 	 48.1684 	 
C 	 49.2015 	 24.4189 	 48.4885 	 
C 	 48.2965 	 24.5814 	 47.3574 	 
C 	 48.9689 	 24.7441 	 46.1559 	 
H 	 48.8821 	 24.3396 	 49.4973 	 
C 	 46.8079 	 24.4557 	 47.5615 	 
H 	 46.3393 	 24.9002 	 46.6389 	 
H 	 46.4343 	 25.0448 	 48.3727 	 
C 	 46.3455 	 23.0149 	 47.6576 	 
H 	 46.8554 	 22.4642 	 46.9145 	 
H 	 45.2662 	 22.9834 	 47.447 	 
C 	 46.6543 	 22.3336 	 49.0123 	 
H 	 46.0328 	 22.8111 	 49.7827 	 
H 	 47.7133 	 22.3583 	 49.2777 	 
H 	 46.1538 	 21.3034 	 48.999 	 
H 	 47.6143 	 23.9759 	 41.4896 	 
H 	 51.3393 	 24.3427 	 48.8287 	 
