34

S 	 -105.678 	 57.3718 	 118.387 	 
C 	 -104.45 	 57.2506 	 119.667 	 
C 	 -104.936 	 56.5101 	 120.757 	 
C 	 -106.257 	 55.9566 	 120.551 	 
C 	 -106.799 	 56.325 	 119.282 	 
H 	 -106.71 	 55.2187 	 121.186 	 
C 	 -104.167 	 55.9135 	 121.892 	 
H 	 -104.665 	 56.2833 	 122.801 	 
H 	 -103.162 	 56.302 	 121.909 	 
C 	 -104.046 	 54.3824 	 121.862 	 
H 	 -103.416 	 54.1903 	 122.679 	 
H 	 -105.034 	 53.9281 	 122 	 
C 	 -103.405 	 53.8974 	 120.541 	 
H 	 -104.068 	 54.1306 	 119.671 	 
H 	 -102.484 	 54.3841 	 120.323 	 
H 	 -103.22 	 52.8316 	 120.604 	 
S 	 -107.86 	 55.3919 	 117.045 	 
C 	 -109.409 	 54.5521 	 117.048 	 
C 	 -110.035 	 54.6068 	 118.224 	 
C 	 -109.181 	 55.1997 	 119.221 	 
C 	 -107.967 	 55.7064 	 118.724 	 
H 	 -111.033 	 54.1692 	 118.383 	 
C 	 -109.621 	 55.3833 	 120.682 	 
H 	 -110.446 	 56.0705 	 120.778 	 
H 	 -108.893 	 55.8594 	 121.269 	 
C 	 -109.944 	 54.0936 	 121.474 	 
H 	 -110.618 	 53.4487 	 120.991 	 
H 	 -110.354 	 54.4361 	 122.441 	 
C 	 -108.669 	 53.2368 	 121.754 	 
H 	 -108.075 	 53.7737 	 122.515 	 
H 	 -108.077 	 53.1153 	 120.901 	 
H 	 -108.93 	 52.2857 	 122.251 	 
H 	 -103.398 	 57.6087 	 119.664 	 
H 	 -109.786 	 53.8981 	 116.232 	 
