34

S 	 46.95 	 14.7451 	 83.9778 	 
C 	 46.8865 	 16.1384 	 85.1319 	 
C 	 48.0796 	 16.7451 	 85.2117 	 
C 	 49.1679 	 16.0018 	 84.5507 	 
C 	 48.7305 	 15.0227 	 83.7581 	 
H 	 50.2248 	 16.2029 	 84.5934 	 
C 	 48.3772 	 17.972 	 86.0425 	 
H 	 49.4014 	 18.0984 	 85.8128 	 
H 	 48.4817 	 17.7803 	 87.0979 	 
C 	 47.4374 	 19.1584 	 85.7126 	 
H 	 46.4479 	 18.8167 	 86.0827 	 
H 	 47.5614 	 19.9265 	 86.4747 	 
C 	 47.6081 	 19.8315 	 84.3581 	 
H 	 46.8608 	 19.3079 	 83.7525 	 
H 	 47.509 	 20.9475 	 84.2727 	 
H 	 48.4756 	 19.5695 	 83.8988 	 
S 	 49.3142 	 12.4096 	 83.9594 	 
C 	 50.3194 	 11.6504 	 82.7148 	 
C 	 50.756 	 12.6386 	 81.7649 	 
C 	 50.3227 	 13.999 	 82.0561 	 
C 	 49.5043 	 13.9657 	 83.1872 	 
H 	 51.2442 	 12.3021 	 80.8571 	 
C 	 50.4196 	 15.1199 	 81.0417 	 
H 	 49.7091 	 15.8948 	 81.3018 	 
H 	 50.0419 	 14.7205 	 80.1389 	 
C 	 51.7839 	 15.8058 	 80.9253 	 
H 	 51.6302 	 16.6515 	 80.3082 	 
H 	 52.346 	 15.1697 	 80.2279 	 
C 	 52.5064 	 16.1714 	 82.3071 	 
H 	 52.6054 	 15.364 	 83.0943 	 
H 	 51.9521 	 16.9841 	 82.8583 	 
H 	 53.5082 	 16.4247 	 82.0919 	 
H 	 46.0431 	 16.5369 	 85.6174 	 
H 	 50.4389 	 10.5601 	 82.6916 	 
