34

S 	 -104.405 	 56.3903 	 118.055 	 
C 	 -103.035 	 55.684 	 118.879 	 
C 	 -103.486 	 54.6694 	 119.713 	 
C 	 -104.883 	 54.4614 	 119.65 	 
C 	 -105.601 	 55.4206 	 118.987 	 
H 	 -105.442 	 53.7368 	 120.171 	 
C 	 -102.551 	 53.7068 	 120.458 	 
H 	 -102.961 	 53.6095 	 121.408 	 
H 	 -101.555 	 54.1141 	 120.636 	 
C 	 -102.452 	 52.3503 	 119.752 	 
H 	 -101.943 	 51.6895 	 120.533 	 
H 	 -103.457 	 51.9367 	 119.622 	 
C 	 -101.705 	 52.3624 	 118.374 	 
H 	 -101.272 	 51.343 	 118.051 	 
H 	 -102.369 	 52.7665 	 117.581 	 
H 	 -100.848 	 53.0775 	 118.398 	 
S 	 -107.673 	 55.0328 	 117.269 	 
C 	 -109.218 	 55.2654 	 117.842 	 
C 	 -109.341 	 55.5576 	 119.192 	 
C 	 -108.003 	 55.6987 	 119.781 	 
C 	 -107.028 	 55.5237 	 118.824 	 
H 	 -110.206 	 55.6709 	 119.758 	 
C 	 -107.807 	 56.1041 	 121.272 	 
H 	 -108.143 	 57.1148 	 121.206 	 
H 	 -106.76 	 56.0813 	 121.359 	 
C 	 -108.622 	 55.2594 	 122.287 	 
H 	 -109.733 	 55.349 	 122.173 	 
H 	 -108.546 	 55.6675 	 123.295 	 
C 	 -108.267 	 53.8314 	 122.175 	 
H 	 -107.203 	 53.6358 	 122.268 	 
H 	 -108.692 	 53.375 	 121.306 	 
H 	 -108.728 	 53.4418 	 123.016 	 
H 	 -102.037 	 55.9169 	 118.693 	 
H 	 -109.978 	 55.3465 	 117.103 	 
