34

S 	 1.84614 	 -2.08988 	 82.218 	 
C 	 1.99016 	 -2.352 	 84.0194 	 
C 	 1.69877 	 -3.6431 	 84.3662 	 
C 	 1.3194 	 -4.35074 	 83.2226 	 
C 	 1.30283 	 -3.69496 	 82.0258 	 
H 	 1.04328 	 -5.41951 	 83.2421 	 
C 	 1.91718 	 -4.31566 	 85.6352 	 
H 	 0.949493 	 -4.7864 	 85.9079 	 
H 	 2.07259 	 -3.46505 	 86.2882 	 
C 	 3.17794 	 -5.23248 	 85.5897 	 
H 	 3.42066 	 -5.46446 	 86.6224 	 
H 	 2.96734 	 -6.1547 	 85.1062 	 
C 	 4.34222 	 -4.5266 	 84.889 	 
H 	 4.10842 	 -4.34796 	 83.8599 	 
H 	 4.58546 	 -3.52464 	 85.2878 	 
H 	 5.29396 	 -4.99672 	 85.1001 	 
S 	 -0.1212 	 -3.29475 	 79.6532 	 
C 	 0.179869 	 -4.40775 	 78.335 	 
C 	 1.20453 	 -5.32047 	 78.6671 	 
C 	 1.68509 	 -5.19676 	 79.9496 	 
C 	 1.03755 	 -4.17048 	 80.6559 	 
H 	 1.53379 	 -6.15255 	 78.1024 	 
C 	 2.82359 	 -5.96398 	 80.5247 	 
H 	 3.36376 	 -5.35035 	 81.1817 	 
H 	 3.45297 	 -6.27962 	 79.6449 	 
C 	 2.34911 	 -7.30424 	 81.2418 	 
H 	 1.48175 	 -7.13406 	 81.9346 	 
H 	 3.10837 	 -7.72314 	 81.9237 	 
C 	 1.6503 	 -8.29785 	 80.242 	 
H 	 1.28028 	 -9.15927 	 80.8369 	 
H 	 2.27975 	 -8.64222 	 79.4264 	 
H 	 0.866825 	 -7.77225 	 79.6732 	 
H 	 2.47346 	 -1.61937 	 84.6369 	 
H 	 -0.235915 	 -4.50913 	 77.4354 	 
