34

S 	 -13.7746 	 36.1745 	 35.776 	 
C 	 -13.5054 	 36.9026 	 37.3471 	 
C 	 -13.2011 	 35.8804 	 38.2232 	 
C 	 -13.2424 	 34.5884 	 37.6525 	 
C 	 -13.5315 	 34.589 	 36.299 	 
H 	 -12.9258 	 33.6881 	 38.1292 	 
C 	 -13.0046 	 36.0455 	 39.7061 	 
H 	 -13.2433 	 37.0718 	 39.809 	 
H 	 -11.9825 	 35.8993 	 39.9308 	 
C 	 -14.035 	 35.2216 	 40.5474 	 
H 	 -14.3136 	 34.3802 	 39.9807 	 
H 	 -13.5438 	 34.8002 	 41.3843 	 
C 	 -15.3594 	 35.9198 	 40.8634 	 
H 	 -15.1454 	 36.8995 	 41.3225 	 
H 	 -15.9972 	 36.1898 	 39.9898 	 
H 	 -16.013 	 35.2759 	 41.5532 	 
S 	 -13.6323 	 33.6375 	 33.749 	 
C 	 -14.1521 	 31.9146 	 33.4882 	 
C 	 -14.4337 	 31.2778 	 34.684 	 
C 	 -14.1825 	 32.1544 	 35.8134 	 
C 	 -13.783 	 33.4532 	 35.4292 	 
H 	 -14.7719 	 30.2713 	 34.7575 	 
C 	 -14.5882 	 31.6244 	 37.1585 	 
H 	 -15.3518 	 30.9513 	 36.8864 	 
H 	 -15.0887 	 32.3455 	 37.7645 	 
C 	 -13.5938 	 30.7461 	 37.9137 	 
H 	 -12.6342 	 31.1858 	 37.9712 	 
H 	 -13.466 	 29.691 	 37.4995 	 
C 	 -14.0557 	 30.3784 	 39.3216 	 
H 	 -15.0895 	 30.0159 	 39.3784 	 
H 	 -13.9449 	 31.2935 	 39.9742 	 
H 	 -13.2687 	 29.6774 	 39.7469 	 
H 	 -13.7996 	 37.9208 	 37.604 	 
H 	 -14.3714 	 31.5014 	 32.505 	 
