34

S 	 13.1637 	 18.6244 	 39.9966 	 
C 	 12.7812 	 17.4917 	 38.7305 	 
C 	 12.8474 	 17.9988 	 37.4427 	 
C 	 13.0522 	 19.3664 	 37.4695 	 
C 	 13.2392 	 19.8984 	 38.7303 	 
H 	 13.0683 	 19.9167 	 36.4836 	 
C 	 12.8515 	 17.1286 	 36.2063 	 
H 	 11.7578 	 17.0759 	 35.9208 	 
H 	 13.2556 	 16.1482 	 36.5421 	 
C 	 13.7187 	 17.5538 	 34.9522 	 
H 	 13.4566 	 16.7805 	 34.2531 	 
H 	 13.3086 	 18.4295 	 34.5361 	 
C 	 15.2055 	 17.5974 	 35.2701 	 
H 	 15.871 	 17.9966 	 34.4965 	 
H 	 15.3814 	 18.1975 	 36.1752 	 
H 	 15.5385 	 16.6279 	 35.5387 	 
S 	 14.6892 	 22.2273 	 38.6504 	 
C 	 14.0179 	 23.6226 	 39.5201 	 
C 	 12.7771 	 23.3374 	 40.0582 	 
C 	 12.3298 	 22.0143 	 39.7834 	 
C 	 13.2811 	 21.2677 	 39.0373 	 
H 	 12.2 	 24.0943 	 40.4856 	 
C 	 10.9558 	 21.5246 	 40.2074 	 
H 	 10.7948 	 20.7037 	 39.5331 	 
H 	 10.1805 	 22.2205 	 39.9357 	 
C 	 10.8349 	 21.0238 	 41.6442 	 
H 	 11.7921 	 20.5317 	 41.8521 	 
H 	 10.0201 	 20.393 	 41.7262 	 
C 	 10.6388 	 22.2136 	 42.6772 	 
H 	 11.5016 	 22.7708 	 42.7961 	 
H 	 10.4205 	 21.7529 	 43.5928 	 
H 	 9.78556 	 22.7939 	 42.3656 	 
H 	 12.501 	 16.4703 	 38.946 	 
H 	 14.4395 	 24.5495 	 39.5065 	 
