34

S 	 -43.8563 	 14.3905 	 79.1182 	 
C 	 -44.8484 	 12.9875 	 79.0194 	 
C 	 -44.2177 	 11.8815 	 79.5179 	 
C 	 -42.8845 	 12.1963 	 80.0452 	 
C 	 -42.5709 	 13.5211 	 79.9138 	 
H 	 -42.2291 	 11.541 	 80.6686 	 
C 	 -44.7922 	 10.4916 	 79.6065 	 
H 	 -44.2432 	 9.66653 	 79.2523 	 
H 	 -45.5546 	 10.5292 	 78.9079 	 
C 	 -45.3126 	 9.9647 	 81.0158 	 
H 	 -45.5707 	 8.97351 	 81.0624 	 
H 	 -44.4449 	 10.1035 	 81.7132 	 
C 	 -46.5207 	 10.7982 	 81.6243 	 
H 	 -47.3436 	 10.4691 	 81.0321 	 
H 	 -46.6066 	 10.4126 	 82.6403 	 
H 	 -46.2665 	 11.8534 	 81.7244 	 
S 	 -41.8613 	 15.4936 	 81.7116 	 
C 	 -40.2302 	 15.606 	 82.2832 	 
C 	 -39.4066 	 14.7567 	 81.5447 	 
C 	 -40.1105 	 14.0628 	 80.4824 	 
C 	 -41.4706 	 14.2598 	 80.5056 	 
H 	 -38.3096 	 14.7409 	 81.7933 	 
C 	 -39.3916 	 13.1608 	 79.4642 	 
H 	 -40.1006 	 12.3763 	 79.1735 	 
H 	 -38.4355 	 12.7805 	 79.8456 	 
C 	 -39.0415 	 13.933 	 78.1161 	 
H 	 -40.0224 	 14.3225 	 77.7635 	 
H 	 -38.6196 	 13.2473 	 77.3491 	 
C 	 -37.9909 	 15.0589 	 78.2705 	 
H 	 -37.0626 	 14.748 	 78.7722 	 
H 	 -38.4323 	 15.668 	 79.103 	 
H 	 -37.7758 	 15.615 	 77.3405 	 
H 	 -45.8161 	 13.0657 	 78.518 	 
H 	 -39.8325 	 16.2487 	 83.0367 	 
