34

S 	 -25.4868 	 44.2397 	 56.8081 	 
C 	 -26.6449 	 44.7203 	 57.9093 	 
C 	 -26.1703 	 45.6516 	 58.8264 	 
C 	 -24.7735 	 45.7276 	 58.7861 	 
C 	 -24.2145 	 44.9228 	 57.8176 	 
H 	 -24.1986 	 46.2838 	 59.4815 	 
C 	 -27.0906 	 46.3521 	 59.7107 	 
H 	 -28.0439 	 46.5864 	 59.179 	 
H 	 -26.7888 	 47.3505 	 60.0407 	 
C 	 -27.5687 	 45.6013 	 60.9241 	 
H 	 -28.4668 	 46.0774 	 61.3732 	 
H 	 -28.0928 	 44.6513 	 60.7601 	 
C 	 -26.5957 	 45.4774 	 62.0555 	 
H 	 -26.0997 	 46.398 	 62.321 	 
H 	 -27.0207 	 45.1677 	 62.9419 	 
H 	 -25.6951 	 44.8833 	 61.9324 	 
S 	 -21.7552 	 44.2299 	 58.827 	 
C 	 -20.3468 	 44.2112 	 57.6249 	 
C 	 -20.7088 	 44.6928 	 56.3817 	 
C 	 -22.1195 	 45.0132 	 56.3019 	 
C 	 -22.8237 	 44.7296 	 57.5034 	 
H 	 -19.9725 	 44.8381 	 55.6351 	 
C 	 -22.7916 	 45.5207 	 55.0009 	 
H 	 -22.1792 	 46.2413 	 54.4789 	 
H 	 -23.6677 	 46.0243 	 55.379 	 
C 	 -23.279 	 44.4016 	 54.0271 	 
H 	 -23.9632 	 44.8844 	 53.3393 	 
H 	 -23.8022 	 43.6001 	 54.5499 	 
C 	 -22.2152 	 43.7249 	 53.1519 	 
H 	 -22.7258 	 43.1284 	 52.3953 	 
H 	 -21.5246 	 43.107 	 53.7503 	 
H 	 -21.5818 	 44.4574 	 52.7036 	 
H 	 -27.614 	 44.4106 	 57.9312 	 
H 	 -19.4146 	 43.8389 	 57.9902 	 
