34

S 	 5.21418 	 -16.7631 	 55.1764 	 
C 	 6.1194 	 -16.2453 	 56.5214 	 
C 	 7.46009 	 -16.5818 	 56.3663 	 
C 	 7.72482 	 -17.3796 	 55.2053 	 
C 	 6.57832 	 -17.572 	 54.3726 	 
H 	 8.64068 	 -17.923 	 54.8905 	 
C 	 8.53576 	 -16.1855 	 57.295 	 
H 	 8.5362 	 -16.8249 	 58.1085 	 
H 	 8.2988 	 -15.2624 	 57.8413 	 
C 	 9.96635 	 -16.0899 	 56.8232 	 
H 	 10.2891 	 -16.9752 	 56.3342 	 
H 	 10.1571 	 -15.203 	 56.2124 	 
C 	 10.8923 	 -16.0332 	 58.0022 	 
H 	 10.9632 	 -16.9687 	 58.4867 	 
H 	 11.9325 	 -15.9051 	 57.5669 	 
H 	 10.7129 	 -15.2647 	 58.8169 	 
S 	 5.05067 	 -19.1638 	 52.6887 	 
C 	 5.70846 	 -19.5191 	 51.0891 	 
C 	 7.05097 	 -19.1906 	 51.0034 	 
C 	 7.55451 	 -18.4817 	 52.13 	 
C 	 6.55048 	 -18.3229 	 53.0999 	 
H 	 7.54539 	 -19.4659 	 50.0771 	 
C 	 8.94718 	 -17.878 	 52.086 	 
H 	 9.43121 	 -18.2595 	 51.1115 	 
H 	 9.45983 	 -18.3972 	 52.9694 	 
C 	 8.99991 	 -16.3394 	 52.2117 	 
H 	 9.98682 	 -15.9895 	 52.5129 	 
H 	 8.45003 	 -16.0947 	 53.0451 	 
C 	 8.33514 	 -15.5878 	 51.0356 	 
H 	 8.83492 	 -15.6386 	 50.0733 	 
H 	 8.12766 	 -14.5487 	 51.3768 	 
H 	 7.34623 	 -15.9251 	 50.9583 	 
H 	 5.7941 	 -15.7507 	 57.4352 	 
H 	 5.08359 	 -19.8909 	 50.2702 	 
