34

S 	 10.1575 	 -11.24 	 99.7904 	 
C 	 9.58587 	 -12.1785 	 101.17 	 
C 	 8.31108 	 -12.7185 	 100.976 	 
C 	 7.87774 	 -12.3907 	 99.6281 	 
C 	 8.75406 	 -11.6047 	 98.8592 	 
H 	 6.90228 	 -12.5262 	 99.2253 	 
C 	 7.47742 	 -13.408 	 102.021 	 
H 	 6.80908 	 -12.6571 	 102.304 	 
H 	 8.04132 	 -13.4985 	 102.876 	 
C 	 6.78944 	 -14.6871 	 101.582 	 
H 	 6.23016 	 -15.2005 	 102.34 	 
H 	 6.16508 	 -14.481 	 100.679 	 
C 	 7.76892 	 -15.8808 	 101.189 	 
H 	 8.1735 	 -15.7584 	 100.171 	 
H 	 8.64238 	 -16.0397 	 101.804 	 
H 	 7.2438 	 -16.8277 	 101.278 	 
S 	 8.31805 	 -9.05348 	 97.7661 	 
C 	 7.92977 	 -8.90821 	 96.112 	 
C 	 7.6215 	 -10.1339 	 95.5761 	 
C 	 7.78715 	 -11.2578 	 96.4958 	 
C 	 8.36918 	 -10.8512 	 97.6757 	 
H 	 7.18 	 -10.1522 	 94.6068 	 
C 	 7.58974 	 -12.6936 	 96.068 	 
H 	 7.10095 	 -12.6331 	 95.1176 	 
H 	 6.96628 	 -13.0598 	 96.9518 	 
C 	 8.8722 	 -13.5444 	 95.912 	 
H 	 9.75794 	 -13.1875 	 96.4842 	 
H 	 9.3307 	 -13.425 	 94.888 	 
C 	 8.70975 	 -15.0391 	 96.1517 	 
H 	 8.42904 	 -15.2008 	 97.2262 	 
H 	 9.65426 	 -15.5855 	 95.9796 	 
H 	 7.87493 	 -15.4686 	 95.6208 	 
H 	 10.1943 	 -12.4284 	 102.054 	 
H 	 7.78371 	 -8.05397 	 95.5142 	 
