34

S 	 33.361 	 -1.38494 	 67.9612 	 
C 	 33.3844 	 0.129429 	 66.9591 	 
C 	 32.2241 	 0.302892 	 66.3078 	 
C 	 31.2739 	 -0.727425 	 66.612 	 
C 	 31.738 	 -1.67881 	 67.5068 	 
H 	 30.2539 	 -0.870267 	 66.237 	 
C 	 31.8406 	 1.41041 	 65.36 	 
H 	 32.1671 	 2.36013 	 65.6603 	 
H 	 30.7796 	 1.49587 	 65.3232 	 
C 	 32.261 	 1.29103 	 63.9424 	 
H 	 31.8996 	 0.362096 	 63.4882 	 
H 	 31.7912 	 2.12117 	 63.4342 	 
C 	 33.7628 	 1.43285 	 63.7889 	 
H 	 34.3049 	 0.685284 	 64.2737 	 
H 	 34.13 	 1.43994 	 62.7168 	 
H 	 34.1795 	 2.32311 	 64.3153 	 
S 	 31.3102 	 -4.40021 	 66.9808 	 
C 	 30.0632 	 -5.26928 	 67.9301 	 
C 	 29.3541 	 -4.40305 	 68.717 	 
C 	 29.9311 	 -3.11288 	 68.7038 	 
C 	 31.0464 	 -2.92618 	 67.922 	 
H 	 28.4595 	 -4.66693 	 69.2864 	 
C 	 29.254 	 -1.92905 	 69.3703 	 
H 	 28.2188 	 -1.93665 	 69.1341 	 
H 	 29.5807 	 -0.944922 	 68.9159 	 
C 	 29.5055 	 -1.93636 	 70.9425 	 
H 	 30.6011 	 -1.77127 	 71.0887 	 
H 	 29.317 	 -2.8613 	 71.389 	 
C 	 28.8653 	 -0.797809 	 71.6826 	 
H 	 27.7738 	 -0.692288 	 71.4557 	 
H 	 29.339 	 0.182401 	 71.4133 	 
H 	 28.953 	 -0.942795 	 72.7496 	 
H 	 34.1304 	 0.868128 	 66.9393 	 
H 	 29.7582 	 -6.21145 	 67.6698 	 
