34

S 	 8.25897 	 20.3313 	 33.9716 	 
C 	 9.73149 	 19.6147 	 33.4221 	 
C 	 10.833 	 19.7984 	 34.2465 	 
C 	 10.3992 	 20.4557 	 35.3947 	 
C 	 9.06853 	 20.7292 	 35.4382 	 
H 	 11.0195 	 20.5041 	 36.2457 	 
C 	 12.2393 	 19.2775 	 33.9956 	 
H 	 12.781 	 20.1507 	 33.7715 	 
H 	 12.369 	 18.649 	 33.1653 	 
C 	 12.8453 	 18.6025 	 35.1962 	 
H 	 12.6599 	 19.1733 	 36.098 	 
H 	 12.243 	 17.688 	 35.2821 	 
C 	 14.3709 	 18.3329 	 34.9962 	 
H 	 14.8471 	 17.9301 	 35.9736 	 
H 	 14.507 	 17.548 	 34.3206 	 
H 	 14.8876 	 19.2326 	 34.5811 	 
S 	 6.52113 	 20.7962 	 36.5175 	 
C 	 6.27918 	 21.4779 	 38.0621 	 
C 	 7.35559 	 22.1871 	 38.5367 	 
C 	 8.47241 	 22.1194 	 37.611 	 
C 	 8.25396 	 21.2687 	 36.5104 	 
H 	 7.28104 	 22.7708 	 39.4173 	 
C 	 9.77642 	 22.6986 	 37.8555 	 
H 	 10.5163 	 22.5105 	 37.053 	 
H 	 10.2007 	 22.1015 	 38.7031 	 
C 	 9.84769 	 24.1963 	 38.0892 	 
H 	 9.14084 	 24.3771 	 38.8742 	 
H 	 9.45306 	 24.8623 	 37.329 	 
C 	 11.1522 	 24.7653 	 38.5854 	 
H 	 11.0604 	 25.8894 	 38.5998 	 
H 	 11.9999 	 24.454 	 38.0089 	 
H 	 11.2831 	 24.4635 	 39.6568 	 
H 	 9.85161 	 19.3264 	 32.3606 	 
H 	 5.40711 	 21.5635 	 38.5867 	 
