34

S 	 53.4504 	 19.2494 	 48.2893 	 
C 	 53.5258 	 19.7418 	 46.662 	 
C 	 54.7569 	 19.5234 	 46.1304 	 
C 	 55.5713 	 18.6981 	 46.9624 	 
C 	 54.9003 	 18.2555 	 48.1033 	 
H 	 56.5832 	 18.3742 	 46.7907 	 
C 	 55.1713 	 20.1247 	 44.7564 	 
H 	 56.0977 	 20.6306 	 44.8076 	 
H 	 54.5612 	 21.0473 	 44.5881 	 
C 	 55.2349 	 19.1655 	 43.5217 	 
H 	 55.3852 	 19.8103 	 42.6487 	 
H 	 56.0765 	 18.5023 	 43.6599 	 
C 	 53.9671 	 18.2982 	 43.2419 	 
H 	 53.4826 	 17.9322 	 44.2028 	 
H 	 53.2655 	 18.9224 	 42.7786 	 
H 	 54.1959 	 17.5453 	 42.5214 	 
S 	 55.6206 	 18.1018 	 50.7603 	 
C 	 56.1282 	 16.5155 	 51.3759 	 
C 	 56.1199 	 15.5877 	 50.4138 	 
C 	 55.7664 	 16.0823 	 49.1095 	 
C 	 55.3661 	 17.3922 	 49.1861 	 
H 	 56.3588 	 14.5122 	 50.6719 	 
C 	 55.6963 	 15.1506 	 47.8681 	 
H 	 56.4004 	 15.5777 	 47.1783 	 
H 	 54.7673 	 15.066 	 47.3443 	 
C 	 56.1218 	 13.7381 	 48.0617 	 
H 	 55.605 	 13.31 	 48.8415 	 
H 	 57.1808 	 13.7444 	 48.379 	 
C 	 55.8975 	 12.7624 	 46.9058 	 
H 	 56.4102 	 11.7951 	 47.0448 	 
H 	 56.4387 	 13.0943 	 46.0006 	 
H 	 54.8736 	 12.4706 	 46.7788 	 
H 	 52.8297 	 20.413 	 46.1013 	 
H 	 56.2577 	 16.0946 	 52.3483 	 
