34

S 	 -1.02914 	 -14.2589 	 71.2357 	 
C 	 -1.67643 	 -15.6716 	 72.0736 	 
C 	 -2.92566 	 -15.3518 	 72.6452 	 
C 	 -3.27681 	 -14.0029 	 72.46 	 
C 	 -2.41166 	 -13.2593 	 71.7509 	 
H 	 -4.13754 	 -13.5718 	 72.8753 	 
C 	 -3.89603 	 -16.3091 	 73.3139 	 
H 	 -4.28475 	 -15.8427 	 74.2247 	 
H 	 -3.23489 	 -17.1824 	 73.5145 	 
C 	 -5.04401 	 -16.6688 	 72.4029 	 
H 	 -5.54879 	 -15.7383 	 72.2937 	 
H 	 -4.74183 	 -17.0365 	 71.3968 	 
C 	 -5.93906 	 -17.6672 	 73.0292 	 
H 	 -5.34343 	 -18.5154 	 73.3458 	 
H 	 -6.54002 	 -17.3386 	 73.8477 	 
H 	 -6.67393 	 -18.044 	 72.3328 	 
S 	 -1.36142 	 -10.9493 	 72.6677 	 
C 	 -1.92858 	 -9.39732 	 72.1856 	 
C 	 -2.86157 	 -9.5874 	 71.1625 	 
C 	 -3.14704 	 -10.916 	 70.7927 	 
C 	 -2.43882 	 -11.7749 	 71.62 	 
H 	 -3.39721 	 -8.77512 	 70.7614 	 
C 	 -4.08998 	 -11.2564 	 69.658 	 
H 	 -4.64286 	 -10.316 	 69.4886 	 
H 	 -4.82746 	 -11.9831 	 69.9644 	 
C 	 -3.33863 	 -11.7818 	 68.3978 	 
H 	 -2.77567 	 -12.6636 	 68.6857 	 
H 	 -2.55015 	 -11.0547 	 68.1089 	 
C 	 -4.17112 	 -12.1265 	 67.1254 	 
H 	 -4.81662 	 -11.338 	 66.8322 	 
H 	 -4.78914 	 -13.056 	 67.3519 	 
H 	 -3.47662 	 -12.3739 	 66.2278 	 
H 	 -1.36526 	 -16.7191 	 71.9598 	 
H 	 -1.69976 	 -8.47562 	 72.6704 	 
