34

S 	 2.57318 	 -19.84 	 86.6679 	 
C 	 0.999671 	 -20.4933 	 86.963 	 
C 	 0.115923 	 -19.4426 	 87.115 	 
C 	 0.690598 	 -18.1803 	 86.8765 	 
C 	 2.02795 	 -18.2038 	 86.5356 	 
H 	 0.207975 	 -17.2492 	 86.9596 	 
C 	 -1.34179 	 -19.6231 	 87.3538 	 
H 	 -1.41879 	 -19.0084 	 88.265 	 
H 	 -1.55173 	 -20.6614 	 87.6977 	 
C 	 -2.2247 	 -19.0766 	 86.2374 	 
H 	 -2.45011 	 -18.0598 	 86.429 	 
H 	 -1.7098 	 -19.2116 	 85.2976 	 
C 	 -3.55974 	 -19.7783 	 86.3337 	 
H 	 -3.44191 	 -20.7798 	 86.052 	 
H 	 -4.01519 	 -19.7133 	 87.3494 	 
H 	 -4.23667 	 -19.4363 	 85.5977 	 
S 	 3.51392 	 -17.0487 	 84.5761 	 
C 	 3.92446 	 -15.3623 	 84.8436 	 
C 	 3.906 	 -14.9925 	 86.1811 	 
C 	 3.36752 	 -15.9996 	 86.9842 	 
C 	 2.8975 	 -17.0656 	 86.2334 	 
H 	 4.24041 	 -14.0685 	 86.5753 	 
C 	 3.08971 	 -15.761 	 88.4663 	 
H 	 2.16152 	 -16.1775 	 88.566 	 
H 	 2.92831 	 -14.6708 	 88.6376 	 
C 	 3.93171 	 -16.4249 	 89.6344 	 
H 	 4.96331 	 -16.1759 	 89.5719 	 
H 	 3.91532 	 -17.595 	 89.5745 	 
C 	 3.36213 	 -16.017 	 90.9753 	 
H 	 2.46742 	 -16.4421 	 91.2261 	 
H 	 3.34824 	 -14.924 	 91.1735 	 
H 	 4.11732 	 -16.3932 	 91.6557 	 
H 	 0.807784 	 -21.4896 	 87.1786 	 
H 	 4.17165 	 -14.6622 	 83.9643 	 
