34

S 	 -36.3356 	 70.8784 	 171.242 	 
C 	 -34.8571 	 71.9002 	 171.421 	 
C 	 -35.0486 	 72.8679 	 172.386 	 
C 	 -36.3286 	 72.783 	 173.007 	 
C 	 -37.1314 	 71.7864 	 172.486 	 
H 	 -36.5714 	 73.3068 	 173.92 	 
C 	 -34.0809 	 73.9421 	 172.693 	 
H 	 -33.3432 	 74.0096 	 171.851 	 
H 	 -33.4704 	 73.6247 	 173.514 	 
C 	 -34.5786 	 75.3351 	 172.879 	 
H 	 -35.5792 	 75.4466 	 172.367 	 
H 	 -34.8876 	 75.5615 	 173.848 	 
C 	 -33.7242 	 76.4544 	 172.368 	 
H 	 -32.7938 	 76.5 	 172.973 	 
H 	 -33.2931 	 76.351 	 171.385 	 
H 	 -34.2746 	 77.3787 	 172.393 	 
S 	 -39.7592 	 72.4786 	 173.332 	 
C 	 -40.908 	 71.1484 	 173.605 	 
C 	 -40.317 	 69.9683 	 173.646 	 
C 	 -38.9151 	 70.02 	 173.27 	 
C 	 -38.4473 	 71.296 	 172.907 	 
H 	 -40.8325 	 69.0642 	 173.829 	 
C 	 -37.9664 	 68.8442 	 173.296 	 
H 	 -36.9151 	 69.024 	 173.215 	 
H 	 -38.174 	 68.2008 	 172.435 	 
C 	 -38.1063 	 68.0738 	 174.576 	 
H 	 -37.6987 	 67.1012 	 174.332 	 
H 	 -39.1053 	 67.8715 	 174.76 	 
C 	 -37.3561 	 68.754 	 175.788 	 
H 	 -37.7642 	 69.8339 	 175.957 	 
H 	 -36.3561 	 68.9227 	 175.521 	 
H 	 -37.2091 	 68.082 	 176.702 	 
H 	 -34.0053 	 71.7538 	 170.722 	 
H 	 -42.0014 	 71.3589 	 173.809 	 
