34

S 	 -55.1132 	 38.7945 	 85.9594 	 
C 	 -56.7167 	 39.5856 	 85.7886 	 
C 	 -56.9436 	 40.4417 	 86.8787 	 
C 	 -55.9013 	 40.3144 	 87.9383 	 
C 	 -54.8629 	 39.4716 	 87.5671 	 
H 	 -55.9562 	 40.7271 	 88.9367 	 
C 	 -58.1867 	 41.2845 	 87.0125 	 
H 	 -58.3655 	 41.3404 	 88.0756 	 
H 	 -58.9698 	 40.8102 	 86.4985 	 
C 	 -57.9419 	 42.7039 	 86.4524 	 
H 	 -57.7102 	 42.4714 	 85.4598 	 
H 	 -58.8296 	 43.4447 	 86.4092 	 
C 	 -56.8025 	 43.5154 	 87.0195 	 
H 	 -55.913 	 42.9445 	 87.0771 	 
H 	 -56.6359 	 44.3589 	 86.4007 	 
H 	 -56.9204 	 43.8509 	 88.0382 	 
S 	 -52.8629 	 40.7268 	 89.1023 	 
C 	 -51.3775 	 39.8511 	 89.4091 	 
C 	 -51.5555 	 38.4898 	 89.1503 	 
C 	 -52.752 	 38.1514 	 88.4401 	 
C 	 -53.5879 	 39.3359 	 88.2724 	 
H 	 -50.746 	 37.8692 	 89.3645 	 
C 	 -52.9625 	 36.7824 	 87.8955 	 
H 	 -52.6158 	 36.6696 	 86.8751 	 
H 	 -54.0149 	 36.6131 	 87.7291 	 
C 	 -52.5354 	 35.6251 	 88.7952 	 
H 	 -53.0062 	 35.4369 	 89.8087 	 
H 	 -51.5689 	 35.8209 	 89.1129 	 
C 	 -52.5337 	 34.3216 	 88.0241 	 
H 	 -51.6693 	 33.6173 	 88.2334 	 
H 	 -52.5551 	 34.4687 	 86.9641 	 
H 	 -53.4288 	 33.7986 	 88.2796 	 
H 	 -57.43 	 39.1435 	 84.9986 	 
H 	 -50.4563 	 40.2827 	 89.8031 	 
