34

S 	 -34.4234 	 56.3898 	 111.479 	 
C 	 -33.8815 	 58.0246 	 111.439 	 
C 	 -34.8893 	 58.9685 	 111.659 	 
C 	 -36.1543 	 58.3609 	 111.672 	 
C 	 -36.1527 	 56.9709 	 111.657 	 
H 	 -37.1155 	 58.9061 	 111.767 	 
C 	 -34.6983 	 60.48 	 111.715 	 
H 	 -35.438 	 61.0676 	 111.156 	 
H 	 -33.8087 	 60.651 	 111.165 	 
C 	 -34.5841 	 60.933 	 113.196 	 
H 	 -34.4805 	 60.0159 	 113.645 	 
H 	 -33.6928 	 61.5012 	 113.295 	 
C 	 -35.8168 	 61.5593 	 113.737 	 
H 	 -35.7173 	 62.1674 	 114.656 	 
H 	 -36.1655 	 62.3832 	 113.017 	 
H 	 -36.6581 	 60.9446 	 113.939 	 
S 	 -37.1 	 54.7799 	 112.972 	 
C 	 -38.6963 	 54.1451 	 112.47 	 
C 	 -39.3576 	 55.1236 	 111.751 	 
C 	 -38.5295 	 56.1569 	 111.183 	 
C 	 -37.239 	 56.0829 	 111.755 	 
H 	 -40.3645 	 54.9635 	 111.4 	 
C 	 -39.0149 	 57.0782 	 110.073 	 
H 	 -38.0673 	 57.1125 	 109.561 	 
H 	 -39.0368 	 58.1007 	 110.561 	 
C 	 -40.3049 	 56.6684 	 109.313 	 
H 	 -41.1347 	 56.7183 	 109.99 	 
H 	 -40.4196 	 55.6206 	 109.054 	 
C 	 -40.4632 	 57.4975 	 108.053 	 
H 	 -39.7779 	 57.2394 	 107.204 	 
H 	 -40.4645 	 58.6053 	 108.233 	 
H 	 -41.4805 	 57.3864 	 107.711 	 
H 	 -32.8642 	 58.3261 	 111.568 	 
H 	 -39.096 	 53.3052 	 113.051 	 
