34

S 	 47.2166 	 1.25029 	 85.3229 	 
C 	 48.1207 	 1.21743 	 83.8966 	 
C 	 49.3943 	 1.83403 	 83.9482 	 
C 	 49.4993 	 2.57792 	 85.1243 	 
C 	 48.4599 	 2.35843 	 85.959 	 
H 	 50.3494 	 3.24249 	 85.3391 	 
C 	 50.5092 	 1.79394 	 82.8945 	 
H 	 51.3549 	 2.0509 	 83.4139 	 
H 	 50.4337 	 2.68733 	 82.2244 	 
C 	 50.8014 	 0.437467 	 82.235 	 
H 	 50.8059 	 -0.343259 	 83.0351 	 
H 	 49.9004 	 0.169536 	 81.6157 	 
C 	 52.1787 	 0.410197 	 81.5244 	 
H 	 52.9485 	 0.590842 	 82.2292 	 
H 	 52.2303 	 -0.568711 	 81.0729 	 
H 	 52.2643 	 1.20659 	 80.836 	 
S 	 48.5555 	 4.60983 	 87.6104 	 
C 	 48.609 	 4.37649 	 89.3189 	 
C 	 48.2953 	 3.09246 	 89.6301 	 
C 	 48.2117 	 2.1634 	 88.551 	 
C 	 48.3513 	 2.87565 	 87.3429 	 
H 	 48.2757 	 2.89059 	 90.6929 	 
C 	 48.1583 	 0.642855 	 88.6858 	 
H 	 47.423 	 0.288994 	 88.0241 	 
H 	 47.8657 	 0.355326 	 89.7281 	 
C 	 49.5071 	 -0.0547507 	 88.4491 	 
H 	 50.3665 	 0.322003 	 89.0992 	 
H 	 49.8701 	 0.273054 	 87.4162 	 
C 	 49.4524 	 -1.57599 	 88.3288 	 
H 	 49.2853 	 -2.05988 	 89.3428 	 
H 	 50.2516 	 -1.94725 	 87.633 	 
H 	 48.557 	 -1.71968 	 87.7015 	 
H 	 47.8973 	 0.555779 	 83.0805 	 
H 	 48.7668 	 5.12264 	 90.1517 	 
