34

S 	 8.03526 	 -15.2397 	 103.399 	 
C 	 8.96334 	 -14.3989 	 102.182 	 
C 	 8.23727 	 -13.9584 	 101.098 	 
C 	 6.84477 	 -14.3175 	 101.241 	 
C 	 6.53019 	 -14.9036 	 102.475 	 
H 	 6.06196 	 -14.1026 	 100.522 	 
C 	 8.76754 	 -13.1829 	 99.9075 	 
H 	 8.44351 	 -13.6913 	 98.9808 	 
H 	 9.83641 	 -13.1894 	 100.145 	 
C 	 8.30194 	 -11.6983 	 99.727 	 
H 	 8.53044 	 -11.2959 	 98.7561 	 
H 	 7.19223 	 -11.783 	 99.7567 	 
C 	 8.98018 	 -10.7241 	 100.76 	 
H 	 9.89391 	 -10.3365 	 100.38 	 
H 	 8.41754 	 -9.7792 	 100.804 	 
H 	 9.01649 	 -11.1208 	 101.837 	 
S 	 3.88571 	 -14.278 	 102.946 	 
C 	 2.64352 	 -15.5187 	 103.054 	 
C 	 3.33363 	 -16.7083 	 103.273 	 
C 	 4.78613 	 -16.6769 	 103.155 	 
C 	 5.19596 	 -15.3862 	 102.835 	 
H 	 2.70204 	 -17.592 	 103.455 	 
C 	 5.64176 	 -17.9218 	 103.334 	 
H 	 6.64214 	 -17.7284 	 102.985 	 
H 	 5.18278 	 -18.7079 	 102.684 	 
C 	 5.91245 	 -18.4264 	 104.782 	 
H 	 5.03659 	 -18.236 	 105.48 	 
H 	 6.7469 	 -17.7635 	 105.093 	 
C 	 6.33495 	 -19.9116 	 104.997 	 
H 	 6.5589 	 -20.1678 	 106.067 	 
H 	 7.22196 	 -20.1254 	 104.318 	 
H 	 5.52791 	 -20.568 	 104.541 	 
H 	 9.99806 	 -14.1178 	 102.164 	 
H 	 1.62834 	 -15.3722 	 103.25 	 
