34

S 	 -86.1636 	 47.9655 	 129.447 	 
C 	 -86.3983 	 46.232 	 129.465 	 
C 	 -85.9178 	 45.6407 	 128.285 	 
C 	 -85.628 	 46.6815 	 127.335 	 
C 	 -85.6015 	 47.9848 	 127.81 	 
H 	 -85.2515 	 46.4439 	 126.362 	 
C 	 -85.9716 	 44.072 	 128.035 	 
H 	 -85.0081 	 43.5601 	 127.862 	 
H 	 -86.2934 	 44.0933 	 127.021 	 
C 	 -86.7153 	 43.195 	 129.007 	 
H 	 -87.6986 	 43.7026 	 129.301 	 
H 	 -87.0121 	 42.1873 	 128.506 	 
C 	 -85.8843 	 42.8139 	 130.27 	 
H 	 -86.4891 	 41.987 	 130.78 	 
H 	 -84.9052 	 42.3486 	 130.148 	 
H 	 -85.851 	 43.7072 	 130.874 	 
S 	 -84.1891 	 50.1788 	 128.399 	 
C 	 -83.5989 	 51.2492 	 127.154 	 
C 	 -83.9086 	 50.7584 	 125.889 	 
C 	 -84.7086 	 49.5607 	 125.95 	 
C 	 -84.9463 	 49.1423 	 127.284 	 
H 	 -83.5405 	 51.3226 	 125.084 	 
C 	 -85.1718 	 48.8815 	 124.642 	 
H 	 -86.1686 	 48.4349 	 124.743 	 
H 	 -84.6429 	 47.9676 	 124.35 	 
C 	 -85.1223 	 49.7217 	 123.35 	 
H 	 -85.4613 	 49.1077 	 122.564 	 
H 	 -84.0838 	 49.8938 	 123.066 	 
C 	 -85.9826 	 50.9305 	 123.398 	 
H 	 -85.9735 	 51.4289 	 122.476 	 
H 	 -85.541 	 51.586 	 124.156 	 
H 	 -87.0087 	 50.6951 	 123.588 	 
H 	 -86.7881 	 45.6808 	 130.314 	 
H 	 -82.8933 	 52.1041 	 127.343 	 
