34

S 	 -6.21265 	 33.6192 	 34.8289 	 
C 	 -6.10724 	 33.2664 	 33.1019 	 
C 	 -6.48516 	 34.2422 	 32.2423 	 
C 	 -6.6364 	 35.4555 	 33.0347 	 
C 	 -6.60467 	 35.3406 	 34.4323 	 
H 	 -6.91857 	 36.3824 	 32.6456 	 
C 	 -6.40869 	 34.2075 	 30.7563 	 
H 	 -7.23146 	 34.8622 	 30.417 	 
H 	 -6.69527 	 33.2026 	 30.4421 	 
C 	 -5.0234 	 34.4862 	 30.1935 	 
H 	 -4.73479 	 35.4749 	 30.4233 	 
H 	 -4.2967 	 33.8432 	 30.7244 	 
C 	 -4.97785 	 34.3631 	 28.6209 	 
H 	 -5.62886 	 33.5603 	 28.2277 	 
H 	 -5.3268 	 35.3455 	 28.1538 	 
H 	 -3.95306 	 34.1218 	 28.321 	 
S 	 -6.12384 	 37.9154 	 35.1184 	 
C 	 -6.80362 	 38.6493 	 36.5551 	 
C 	 -7.61827 	 37.7601 	 37.1675 	 
C 	 -7.73853 	 36.4607 	 36.5201 	 
C 	 -7.00911 	 36.3646 	 35.3531 	 
H 	 -8.1695 	 38.1693 	 38.098 	 
C 	 -8.57153 	 35.3017 	 37.0984 	 
H 	 -8.55444 	 35.3158 	 38.1635 	 
H 	 -8.12605 	 34.317 	 36.8229 	 
C 	 -10.0411 	 35.3094 	 36.7458 	 
H 	 -10.464 	 34.2826 	 37.0545 	 
H 	 -10.0698 	 35.2619 	 35.6405 	 
C 	 -10.8581 	 36.36 	 37.384 	 
H 	 -10.8149 	 36.3451 	 38.457 	 
H 	 -11.9404 	 36.2955 	 37.0469 	 
H 	 -10.4962 	 37.3228 	 37.1993 	 
H 	 -5.80095 	 32.2378 	 32.7048 	 
H 	 -6.55688 	 39.6354 	 36.8821 	 
