34

S 	 -6.68381 	 -16.72 	 79.3759 	 
C 	 -6.51737 	 -17.402 	 80.9763 	 
C 	 -6.32458 	 -16.4437 	 81.9955 	 
C 	 -6.4028 	 -15.0948 	 81.394 	 
C 	 -6.56952 	 -15.0464 	 80.0498 	 
H 	 -6.38181 	 -14.3335 	 82.0727 	 
C 	 -6.2274 	 -16.7922 	 83.5029 	 
H 	 -5.30639 	 -17.2442 	 83.8307 	 
H 	 -7.04365 	 -17.4765 	 83.7069 	 
C 	 -6.61798 	 -15.5838 	 84.3798 	 
H 	 -5.91076 	 -14.7555 	 84.3157 	 
H 	 -7.61322 	 -15.1002 	 84.0758 	 
C 	 -6.69537 	 -15.8807 	 85.9183 	 
H 	 -7.59005 	 -16.5386 	 86.2785 	 
H 	 -5.86237 	 -16.3794 	 86.3073 	 
H 	 -6.74168 	 -14.9611 	 86.4181 	 
S 	 -5.74942 	 -12.5517 	 78.9618 	 
C 	 -7.00942 	 -11.478 	 78.4358 	 
C 	 -8.2174 	 -12.0914 	 78.4562 	 
C 	 -8.16292 	 -13.4711 	 78.849 	 
C 	 -6.95982 	 -13.8394 	 79.2993 	 
H 	 -9.0941 	 -11.557 	 78.0914 	 
C 	 -9.41262 	 -14.3419 	 78.9759 	 
H 	 -9.23406 	 -15.3834 	 79.3886 	 
H 	 -9.85035 	 -14.5604 	 77.9635 	 
C 	 -10.5227 	 -13.8179 	 79.8405 	 
H 	 -11.3474 	 -14.4884 	 79.7818 	 
H 	 -10.8712 	 -12.8289 	 79.6225 	 
C 	 -10.3015 	 -14.0089 	 81.3288 	 
H 	 -11.1599 	 -13.6965 	 81.9078 	 
H 	 -9.39994 	 -13.5239 	 81.6801 	 
H 	 -10.1733 	 -15.0243 	 81.5622 	 
H 	 -6.38169 	 -18.4305 	 81.1263 	 
H 	 -6.85662 	 -10.5435 	 77.9874 	 
