34

S 	 -31.8747 	 61.6556 	 110.464 	 
C 	 -31.6513 	 62.1362 	 112.152 	 
C 	 -32.7904 	 62.0209 	 112.93 	 
C 	 -33.8766 	 61.631 	 112.138 	 
C 	 -33.5592 	 61.2472 	 110.851 	 
H 	 -34.8551 	 61.2955 	 112.488 	 
C 	 -32.8203 	 62.3541 	 114.407 	 
H 	 -33.7606 	 62.8934 	 114.55 	 
H 	 -32.1093 	 63.1703 	 114.499 	 
C 	 -32.588 	 61.2627 	 115.473 	 
H 	 -31.5855 	 60.9205 	 115.461 	 
H 	 -32.8889 	 61.6739 	 116.36 	 
C 	 -33.5088 	 59.9931 	 115.398 	 
H 	 -34.4559 	 60.2171 	 115.819 	 
H 	 -33.6087 	 59.6861 	 114.332 	 
H 	 -33.0991 	 59.1082 	 115.92 	 
S 	 -33.7827 	 59.2121 	 109.087 	 
C 	 -35.253 	 58.7759 	 108.289 	 
C 	 -36.2663 	 59.6993 	 108.697 	 
C 	 -35.7737 	 60.7069 	 109.56 	 
C 	 -34.3996 	 60.5665 	 109.873 	 
H 	 -37.229 	 59.592 	 108.429 	 
C 	 -36.7289 	 61.8255 	 110.074 	 
H 	 -36.9452 	 62.3775 	 109.16 	 
H 	 -36.2792 	 62.6215 	 110.749 	 
C 	 -37.9338 	 61.2551 	 110.93 	 
H 	 -38.1831 	 60.2655 	 110.541 	 
H 	 -38.8092 	 61.9395 	 110.861 	 
C 	 -37.6745 	 61.161 	 112.412 	 
H 	 -37.1076 	 60.2674 	 112.621 	 
H 	 -38.5988 	 60.7887 	 112.895 	 
H 	 -37.3196 	 62.0742 	 112.898 	 
H 	 -30.7188 	 62.1879 	 112.69 	 
H 	 -35.4515 	 57.9892 	 107.522 	 
