34

S 	 -46.0411 	 32.1854 	 98.166 	 
C 	 -46.2242 	 33.3257 	 96.8021 	 
C 	 -46.5896 	 34.6281 	 97.1999 	 
C 	 -46.9713 	 34.6411 	 98.5943 	 
C 	 -46.6954 	 33.4169 	 99.2409 	 
H 	 -47.405 	 35.4048 	 99.1459 	 
C 	 -46.6829 	 35.9375 	 96.3306 	 
H 	 -47.1958 	 36.6692 	 96.9681 	 
H 	 -47.3962 	 35.7393 	 95.4791 	 
C 	 -45.3523 	 36.5746 	 96.0267 	 
H 	 -44.7275 	 36.5603 	 96.9603 	 
H 	 -44.8864 	 35.9995 	 95.2017 	 
C 	 -45.5348 	 38.0202 	 95.6556 	 
H 	 -44.6599 	 38.4633 	 95.0665 	 
H 	 -46.4637 	 38.2768 	 95.0123 	 
H 	 -45.6528 	 38.6669 	 96.502 	 
S 	 -48.2687 	 31.8247 	 100.877 	 
C 	 -48.5984 	 32.3237 	 102.488 	 
C 	 -47.7346 	 33.3842 	 102.878 	 
C 	 -46.86 	 33.7948 	 101.813 	 
C 	 -47.1196 	 33.152 	 100.623 	 
H 	 -47.8285 	 33.8215 	 103.853 	 
C 	 -45.8027 	 34.9411 	 102.084 	 
H 	 -45.0923 	 34.923 	 101.293 	 
H 	 -45.2634 	 34.5046 	 102.89 	 
C 	 -46.3968 	 36.334 	 102.259 	 
H 	 -47.1112 	 36.2695 	 103.067 	 
H 	 -47.0213 	 36.3931 	 101.371 	 
C 	 -45.5186 	 37.5838 	 102.408 	 
H 	 -44.9125 	 37.6939 	 101.519 	 
H 	 -44.8499 	 37.5695 	 103.274 	 
H 	 -45.9949 	 38.5788 	 102.463 	 
H 	 -45.8378 	 33.2309 	 95.8635 	 
H 	 -49.2907 	 31.7892 	 103.182 	 
