34

S 	 51.1415 	 10.4575 	 50.8826 	 
C 	 50.3477 	 9.3381 	 49.7193 	 
C 	 49.8202 	 10.0029 	 48.648 	 
C 	 49.9998 	 11.381 	 48.7186 	 
C 	 50.5606 	 11.7806 	 49.9232 	 
H 	 49.6545 	 12.133 	 48.0717 	 
C 	 49.2259 	 9.29152 	 47.5079 	 
H 	 49.0848 	 8.22534 	 47.8286 	 
H 	 50.0374 	 9.24193 	 46.8191 	 
C 	 48.0781 	 9.94961 	 46.7459 	 
H 	 48.4497 	 10.9123 	 46.2283 	 
H 	 47.8523 	 9.26456 	 45.9632 	 
C 	 46.7899 	 10.1606 	 47.5806 	 
H 	 46.9007 	 10.6831 	 48.5212 	 
H 	 46.1371 	 10.8203 	 46.9726 	 
H 	 46.3693 	 9.19372 	 47.7767 	 
S 	 52.3585 	 13.6499 	 50.7054 	 
C 	 51.9006 	 15.2951 	 50.5167 	 
C 	 50.5703 	 15.5106 	 50.2455 	 
C 	 49.8443 	 14.2939 	 50.2114 	 
C 	 50.7063 	 13.1707 	 50.3885 	 
H 	 50.1756 	 16.4982 	 50.1476 	 
C 	 48.3096 	 14.2452 	 50.0176 	 
H 	 48.1435 	 13.2608 	 49.5523 	 
H 	 47.9948 	 14.8965 	 49.2755 	 
C 	 47.529 	 14.4858 	 51.3065 	 
H 	 46.4697 	 14.6581 	 51.0094 	 
H 	 47.7988 	 15.4258 	 51.6448 	 
C 	 47.7939 	 13.475 	 52.4027 	 
H 	 47.0993 	 13.538 	 53.3046 	 
H 	 48.7919 	 13.7112 	 52.7392 	 
H 	 47.7904 	 12.456 	 51.985 	 
H 	 50.5 	 8.33626 	 49.6444 	 
H 	 52.602 	 16.0495 	 50.5674 	 
