34

S 	 -43.5289 	 23.8171 	 80.87 	 
C 	 -44.6376 	 25.1633 	 80.9933 	 
C 	 -45.7655 	 24.7806 	 81.6702 	 
C 	 -45.766 	 23.446 	 82.1906 	 
C 	 -44.6434 	 22.7852 	 81.767 	 
H 	 -46.5281 	 23.0533 	 82.867 	 
C 	 -46.8877 	 25.7263 	 81.9176 	 
H 	 -47.8117 	 25.1471 	 82.1848 	 
H 	 -47.1235 	 26.1748 	 80.9951 	 
C 	 -46.4284 	 26.7865 	 82.9584 	 
H 	 -45.9544 	 26.2378 	 83.7986 	 
H 	 -45.6337 	 27.4436 	 82.5454 	 
C 	 -47.54 	 27.6657 	 83.4911 	 
H 	 -48.2431 	 27.0739 	 84.1593 	 
H 	 -47.1553 	 28.3699 	 84.2142 	 
H 	 -48.0888 	 28.0525 	 82.6588 	 
S 	 -43.9283 	 20.411 	 80.7599 	 
C 	 -43.6799 	 19.022 	 81.8921 	 
C 	 -43.9768 	 19.3313 	 83.2101 	 
C 	 -44.179 	 20.7823 	 83.3432 	 
C 	 -44.1813 	 21.4607 	 82.1434 	 
H 	 -43.999 	 18.5401 	 83.9768 	 
C 	 -44.5453 	 21.374 	 84.6723 	 
H 	 -45.1674 	 22.3047 	 84.5983 	 
H 	 -43.555 	 21.5919 	 85.1163 	 
C 	 -45.2832 	 20.4205 	 85.6791 	 
H 	 -44.6801 	 19.5275 	 85.8009 	 
H 	 -46.3214 	 20.2502 	 85.3414 	 
C 	 -45.392 	 21.0648 	 87.1054 	 
H 	 -46.2579 	 21.7035 	 87.2831 	 
H 	 -44.5577 	 21.6487 	 87.4079 	 
H 	 -45.4384 	 20.3139 	 87.8657 	 
H 	 -44.4413 	 26.073 	 80.4469 	 
H 	 -43.6184 	 17.969 	 81.542 	 
