34

S 	 43.022 	 24.6493 	 102.37 	 
C 	 43.1945 	 25.8913 	 101.113 	 
C 	 43.8352 	 25.3951 	 99.9592 	 
C 	 44.3941 	 24.1005 	 100.106 	 
C 	 44.0005 	 23.5071 	 101.348 	 
H 	 45.0211 	 23.5635 	 99.347 	 
C 	 44.0178 	 26.1119 	 98.6561 	 
H 	 43.4003 	 27.011 	 98.6516 	 
H 	 43.6392 	 25.3816 	 97.9439 	 
C 	 45.4081 	 26.4959 	 98.329 	 
H 	 45.8427 	 27.033 	 99.1367 	 
H 	 46.0725 	 25.5642 	 98.2769 	 
C 	 45.4771 	 27.3685 	 97.1258 	 
H 	 44.8641 	 28.2562 	 97.2958 	 
H 	 46.5198 	 27.6985 	 97.0266 	 
H 	 45.1473 	 26.8103 	 96.2154 	 
S 	 45.1838 	 21.9495 	 103.279 	 
C 	 45.1009 	 20.2209 	 103.168 	 
C 	 44.506 	 19.8185 	 101.973 	 
C 	 44.1581 	 20.906 	 101.134 	 
C 	 44.3047 	 22.1441 	 101.749 	 
H 	 44.5588 	 18.7632 	 101.712 	 
C 	 43.6987 	 20.5493 	 99.7127 	 
H 	 43.065 	 21.3663 	 99.248 	 
H 	 42.8743 	 19.7423 	 99.8661 	 
C 	 44.7095 	 19.9635 	 98.7564 	 
H 	 43.9799 	 19.5593 	 97.9306 	 
H 	 45.1341 	 19.0806 	 99.1932 	 
C 	 45.8344 	 20.8851 	 98.2263 	 
H 	 45.3989 	 21.7202 	 97.7448 	 
H 	 46.5134 	 20.4827 	 97.4231 	 
H 	 46.3245 	 21.1327 	 99.1449 	 
H 	 42.8468 	 26.9337 	 101.049 	 
H 	 45.3421 	 19.4828 	 103.96 	 
