34

S 	 -3.5276 	 -11.2266 	 87.2551 	 
C 	 -2.94775 	 -12.6471 	 88.258 	 
C 	 -3.18131 	 -13.7909 	 87.5718 	 
C 	 -3.79059 	 -13.616 	 86.2492 	 
C 	 -4.03368 	 -12.2983 	 85.9618 	 
H 	 -4.06831 	 -14.4054 	 85.5082 	 
C 	 -2.97551 	 -15.2388 	 88.0642 	 
H 	 -2.14725 	 -15.2695 	 88.7052 	 
H 	 -2.80453 	 -15.7929 	 87.1798 	 
C 	 -4.24988 	 -15.904 	 88.7669 	 
H 	 -4.24564 	 -15.6108 	 89.8205 	 
H 	 -5.21047 	 -15.5473 	 88.4682 	 
C 	 -4.28825 	 -17.4187 	 88.6699 	 
H 	 -5.15075 	 -17.934 	 89.0643 	 
H 	 -4.19449 	 -17.7988 	 87.7073 	 
H 	 -3.49012 	 -17.8504 	 89.2798 	 
S 	 -4.05981 	 -10.3484 	 84.1503 	 
C 	 -5.10206 	 -10.4082 	 82.7348 	 
C 	 -5.84442 	 -11.6089 	 82.7273 	 
C 	 -5.62976 	 -12.4014 	 83.908 	 
C 	 -4.77794 	 -11.7836 	 84.8253 	 
H 	 -6.40759 	 -11.8571 	 81.7811 	 
C 	 -6.39897 	 -13.7034 	 84.1322 	 
H 	 -7.45 	 -13.4621 	 84.1709 	 
H 	 -6.29543 	 -14.0088 	 85.2399 	 
C 	 -6.00376 	 -14.8457 	 83.1521 	 
H 	 -4.99297 	 -15.1547 	 83.3612 	 
H 	 -5.89883 	 -14.3893 	 82.1588 	 
C 	 -6.80207 	 -16.1242 	 83.2376 	 
H 	 -7.793 	 -15.9786 	 82.9595 	 
H 	 -6.78196 	 -16.5883 	 84.2413 	 
H 	 -6.37351 	 -16.8258 	 82.556 	 
H 	 -2.46763 	 -12.5333 	 89.2609 	 
H 	 -5.12739 	 -9.77429 	 81.8796 	 
