34

S 	 -26.3453 	 54.2792 	 108.748 	 
C 	 -27.9163 	 53.7398 	 109.226 	 
C 	 -28.6743 	 54.6939 	 109.91 	 
C 	 -27.8931 	 55.8988 	 110.03 	 
C 	 -26.6258 	 55.775 	 109.616 	 
H 	 -28.2964 	 56.8022 	 110.438 	 
C 	 -30.1514 	 54.495 	 110.4 	 
H 	 -30.7288 	 53.838 	 109.684 	 
H 	 -30.657 	 55.4631 	 110.323 	 
C 	 -30.2812 	 54.0259 	 111.846 	 
H 	 -31.3101 	 53.9748 	 112.041 	 
H 	 -29.9145 	 52.9701 	 111.929 	 
C 	 -29.463 	 54.8282 	 112.891 	 
H 	 -28.4401 	 55.0416 	 112.677 	 
H 	 -29.9524 	 55.8309 	 112.843 	 
H 	 -29.5494 	 54.3495 	 113.87 	 
S 	 -24.9245 	 57.141 	 107.914 	 
C 	 -23.9491 	 58.3812 	 108.483 	 
C 	 -24.1551 	 58.6789 	 109.891 	 
C 	 -25.081 	 57.7379 	 110.452 	 
C 	 -25.663 	 56.914 	 109.529 	 
H 	 -23.6703 	 59.4624 	 110.429 	 
C 	 -25.4627 	 57.8354 	 111.944 	 
H 	 -26.5343 	 58.0801 	 111.878 	 
H 	 -24.9249 	 58.628 	 112.418 	 
C 	 -25.4377 	 56.509 	 112.799 	 
H 	 -26.0516 	 55.8049 	 112.358 	 
H 	 -26.0706 	 56.6921 	 113.636 	 
C 	 -24.0889 	 55.8795 	 113.152 	 
H 	 -23.3729 	 56.5622 	 113.504 	 
H 	 -23.7849 	 55.4119 	 112.223 	 
H 	 -24.1492 	 55.0941 	 113.851 	 
H 	 -28.3075 	 52.7552 	 108.965 	 
H 	 -23.1796 	 58.8589 	 107.769 	 
