34

S 	 10.3799 	 -6.20435 	 91.5709 	 
C 	 10.8293 	 -4.69262 	 92.2221 	 
C 	 9.99508 	 -3.62816 	 91.8512 	 
C 	 8.85705 	 -4.13786 	 91.103 	 
C 	 8.86136 	 -5.51264 	 90.9332 	 
H 	 8.16308 	 -3.44157 	 90.6793 	 
C 	 10.1748 	 -2.14055 	 92.1528 	 
H 	 10.4027 	 -2.01185 	 93.1707 	 
H 	 9.26842 	 -1.58295 	 92.0665 	 
C 	 11.2179 	 -1.33799 	 91.2845 	 
H 	 11.0379 	 -0.272121 	 91.5859 	 
H 	 12.1704 	 -1.80491 	 91.5262 	 
C 	 10.9179 	 -1.43821 	 89.6876 	 
H 	 11.6431 	 -0.895271 	 89.0285 	 
H 	 10.9992 	 -2.48144 	 89.3285 	 
H 	 9.95499 	 -0.960275 	 89.4797 	 
S 	 8.84172 	 -7.36198 	 88.8531 	 
C 	 7.39311 	 -7.50057 	 87.908 	 
C 	 6.29917 	 -6.79252 	 88.4519 	 
C 	 6.73319 	 -6.04953 	 89.5856 	 
C 	 8.02335 	 -6.29536 	 90.0262 	 
H 	 5.39314 	 -6.83265 	 87.8863 	 
C 	 5.73533 	 -5.09188 	 90.3391 	 
H 	 5.87045 	 -4.16234 	 89.844 	 
H 	 6.07854 	 -4.8063 	 91.3832 	 
C 	 4.26062 	 -5.4765 	 90.1616 	 
H 	 4.02354 	 -6.53124 	 90.5901 	 
H 	 4.11257 	 -5.44779 	 89.1292 	 
C 	 3.43017 	 -4.3845 	 90.8014 	 
H 	 2.35272 	 -4.35909 	 90.5929 	 
H 	 3.83999 	 -3.4255 	 90.4566 	 
H 	 3.47761 	 -4.42825 	 91.8699 	 
H 	 11.7883 	 -4.54062 	 92.6981 	 
H 	 7.30226 	 -7.99761 	 86.945 	 
