34

S 	 -9.94294 	 47.0827 	 40.7806 	 
C 	 -11.355 	 48.04 	 41.1232 	 
C 	 -11.0432 	 49.2903 	 41.6545 	 
C 	 -9.60533 	 49.5572 	 41.487 	 
C 	 -8.87781 	 48.5074 	 40.9171 	 
H 	 -9.05726 	 50.5177 	 41.5788 	 
C 	 -11.9711 	 50.3838 	 42.1047 	 
H 	 -11.6533 	 50.8191 	 43.0815 	 
H 	 -12.861 	 49.8711 	 42.308 	 
C 	 -12.2417 	 51.4517 	 41.0996 	 
H 	 -13.0589 	 52.0523 	 41.4369 	 
H 	 -11.4473 	 52.0883 	 41.009 	 
C 	 -12.5775 	 50.9678 	 39.6783 	 
H 	 -12.701 	 51.7145 	 38.9017 	 
H 	 -11.7369 	 50.3802 	 39.3621 	 
H 	 -13.4823 	 50.2972 	 39.8022 	 
S 	 -6.27472 	 48.1718 	 41.9536 	 
C 	 -4.99763 	 48.5421 	 40.8949 	 
C 	 -5.42408 	 48.7445 	 39.5801 	 
C 	 -6.85274 	 48.6539 	 39.4727 	 
C 	 -7.46229 	 48.4566 	 40.6343 	 
H 	 -4.73788 	 49.0502 	 38.8426 	 
C 	 -7.45413 	 48.7911 	 38.1045 	 
H 	 -7.08259 	 49.7089 	 37.6438 	 
H 	 -8.50164 	 49.0922 	 38.1232 	 
C 	 -7.09176 	 47.5448 	 37.2436 	 
H 	 -7.48327 	 46.5273 	 37.5442 	 
H 	 -5.99075 	 47.3636 	 37.227 	 
C 	 -7.32832 	 47.7091 	 35.7142 	 
H 	 -8.3891 	 48.072 	 35.5762 	 
H 	 -7.14537 	 46.8283 	 35.191 	 
H 	 -6.56621 	 48.3781 	 35.3436 	 
H 	 -12.3318 	 47.7222 	 40.7463 	 
H 	 -3.97468 	 48.4371 	 41.1509 	 
