34

S 	 -2.10827 	 -11.7416 	 63.9906 	 
C 	 -3.56206 	 -10.9489 	 64.534 	 
C 	 -3.3686 	 -10.3705 	 65.7735 	 
C 	 -2.02056 	 -10.5943 	 66.2725 	 
C 	 -1.19085 	 -11.3257 	 65.4021 	 
H 	 -1.53699 	 -10.1622 	 67.1429 	 
C 	 -4.32493 	 -9.56702 	 66.5899 	 
H 	 -4.02891 	 -9.44098 	 67.6548 	 
H 	 -5.30965 	 -10.1029 	 66.4897 	 
C 	 -4.58592 	 -8.22418 	 65.9153 	 
H 	 -4.86153 	 -8.36497 	 64.8625 	 
H 	 -5.4734 	 -7.81705 	 66.378 	 
C 	 -3.35299 	 -7.34875 	 66.0005 	 
H 	 -2.4657 	 -7.79702 	 65.5299 	 
H 	 -3.4725 	 -6.31188 	 65.6088 	 
H 	 -2.93948 	 -7.04123 	 67.0439 	 
S 	 1.15256 	 -10.8372 	 64.2659 	 
C 	 2.54665 	 -11.1149 	 65.0832 	 
C 	 2.38157 	 -11.8242 	 66.2847 	 
C 	 1.01777 	 -12.0743 	 66.5894 	 
C 	 0.235896 	 -11.4597 	 65.5826 	 
H 	 3.32354 	 -12.112 	 66.8287 	 
C 	 0.420198 	 -12.6877 	 67.8672 	 
H 	 0.560049 	 -13.7501 	 68.0303 	 
H 	 -0.616953 	 -12.6915 	 67.7881 	 
C 	 0.968217 	 -11.9564 	 69.144 	 
H 	 1.98862 	 -12.2359 	 69.2081 	 
H 	 0.468332 	 -12.3734 	 69.9868 	 
C 	 0.870622 	 -10.4807 	 69.1885 	 
H 	 1.45119 	 -9.9912 	 68.4081 	 
H 	 1.32201 	 -10.1235 	 70.1361 	 
H 	 -0.143477 	 -10.0481 	 69.1192 	 
H 	 -4.38648 	 -10.9133 	 63.9432 	 
H 	 3.49615 	 -10.8638 	 64.6458 	 
