34

S 	 71.1699 	 24.9074 	 78.128 	 
C 	 72.3961 	 23.7494 	 78.5002 	 
C 	 73.6954 	 24.2677 	 78.2267 	 
C 	 73.6526 	 25.4087 	 77.4001 	 
C 	 72.329 	 25.945 	 77.2985 	 
H 	 74.5467 	 25.6926 	 76.7862 	 
C 	 75.0379 	 23.5875 	 78.6351 	 
H 	 75.6023 	 23.5367 	 77.6961 	 
H 	 75.0832 	 22.5334 	 79.0096 	 
C 	 75.8893 	 24.3587 	 79.638 	 
H 	 76.8579 	 23.86 	 79.8528 	 
H 	 76.2048 	 25.313 	 79.2524 	 
C 	 75.0845 	 24.4489 	 80.9648 	 
H 	 75.6792 	 25.0104 	 81.7393 	 
H 	 74.1093 	 24.8988 	 80.7773 	 
H 	 74.9859 	 23.3867 	 81.318 	 
S 	 70.9525 	 26.3959 	 75.1153 	 
C 	 71.2932 	 27.8952 	 74.2425 	 
C 	 71.8588 	 28.8297 	 75.0756 	 
C 	 72.3682 	 28.2572 	 76.289 	 
C 	 71.9953 	 26.9554 	 76.4005 	 
H 	 72.0004 	 29.831 	 74.7652 	 
C 	 73.1172 	 28.9692 	 77.3944 	 
H 	 73.5302 	 29.8212 	 76.8863 	 
H 	 73.7452 	 28.2159 	 77.7774 	 
C 	 72.1989 	 29.3834 	 78.5805 	 
H 	 71.618 	 28.5756 	 78.9569 	 
H 	 71.4303 	 30.1461 	 78.2725 	 
C 	 72.9778 	 29.8953 	 79.8466 	 
H 	 73.6161 	 29.1248 	 80.3177 	 
H 	 72.2226 	 30.0845 	 80.5527 	 
H 	 73.6546 	 30.7263 	 79.5502 	 
H 	 72.2016 	 22.8813 	 79.1255 	 
H 	 71.1331 	 28.0442 	 73.1568 	 
