34

S 	 -40.3492 	 50.1411 	 102.92 	 
C 	 -40.3236 	 51.4883 	 104.084 	 
C 	 -41.3983 	 51.5342 	 104.962 	 
C 	 -42.2968 	 50.5214 	 104.596 	 
C 	 -41.8615 	 49.6846 	 103.565 	 
H 	 -43.3112 	 50.3273 	 104.977 	 
C 	 -41.6012 	 52.7298 	 105.906 	 
H 	 -41.191 	 53.617 	 105.599 	 
H 	 -40.9679 	 52.586 	 106.786 	 
C 	 -42.972 	 52.8237 	 106.379 	 
H 	 -43.4047 	 51.8274 	 106.597 	 
H 	 -43.0263 	 53.3445 	 107.355 	 
C 	 -43.8523 	 53.4452 	 105.329 	 
H 	 -43.498 	 54.4662 	 105.378 	 
H 	 -43.7651 	 53.0057 	 104.359 	 
H 	 -44.8639 	 53.3746 	 105.642 	 
S 	 -43.7389 	 48.2613 	 102.325 	 
C 	 -43.699 	 46.5274 	 102.228 	 
C 	 -42.8458 	 46.0638 	 103.233 	 
C 	 -42.0942 	 47.083 	 103.875 	 
C 	 -42.3754 	 48.3389 	 103.34 	 
H 	 -42.7603 	 45.0346 	 103.536 	 
C 	 -41.1468 	 46.7684 	 104.958 	 
H 	 -41.7843 	 46.2001 	 105.596 	 
H 	 -41.0121 	 47.6133 	 105.499 	 
C 	 -39.846 	 45.9938 	 104.546 	 
H 	 -39.3464 	 46.6651 	 103.818 	 
H 	 -40.0191 	 45.0643 	 103.945 	 
C 	 -38.925 	 45.7506 	 105.693 	 
H 	 -38.668 	 46.6843 	 106.138 	 
H 	 -38.0336 	 45.1944 	 105.384 	 
H 	 -39.5596 	 45.0835 	 106.311 	 
H 	 -39.4238 	 52.1404 	 104.189 	 
H 	 -44.4162 	 46.0128 	 101.697 	 
