34

S 	 -81.2044 	 33.8704 	 132.851 	 
C 	 -79.4818 	 33.8638 	 133.244 	 
C 	 -78.9434 	 35.077 	 132.964 	 
C 	 -79.9395 	 36.0828 	 132.72 	 
C 	 -81.2059 	 35.6253 	 132.576 	 
H 	 -79.6161 	 37.107 	 132.542 	 
C 	 -77.4575 	 35.3288 	 133.12 	 
H 	 -77.2076 	 35.9264 	 132.327 	 
H 	 -76.9322 	 34.3693 	 133.074 	 
C 	 -76.9296 	 35.8578 	 134.454 	 
H 	 -77.546 	 35.4912 	 135.249 	 
H 	 -75.9606 	 35.6324 	 134.736 	 
C 	 -77.0047 	 37.4569 	 134.474 	 
H 	 -76.6916 	 37.8705 	 133.472 	 
H 	 -78.0116 	 37.825 	 134.698 	 
H 	 -76.4335 	 37.8924 	 135.28 	 
S 	 -83.4656 	 35.6909 	 131.044 	 
C 	 -84.4448 	 37.0711 	 131.045 	 
C 	 -84.0154 	 38.011 	 131.981 	 
C 	 -82.7994 	 37.674 	 132.652 	 
C 	 -82.4028 	 36.3603 	 132.319 	 
H 	 -84.4899 	 38.9882 	 132.157 	 
C 	 -82.1163 	 38.5366 	 133.728 	 
H 	 -81.4532 	 37.8616 	 134.336 	 
H 	 -82.8017 	 38.9041 	 134.437 	 
C 	 -81.5171 	 39.8211 	 133.302 	 
H 	 -82.3851 	 40.4187 	 133.021 	 
H 	 -80.9345 	 39.6597 	 132.4 	 
C 	 -80.5419 	 40.5042 	 134.286 	 
H 	 -79.7623 	 39.723 	 134.59 	 
H 	 -81.1107 	 40.7659 	 135.242 	 
H 	 -80.0771 	 41.3791 	 133.934 	 
H 	 -78.9477 	 32.8977 	 133.518 	 
H 	 -85.4713 	 37.0509 	 130.768 	 
