34

S 	 -43.5323 	 53.2309 	 104.385 	 
C 	 -43.4106 	 54.4609 	 103.174 	 
C 	 -42.168 	 54.9761 	 103.056 	 
C 	 -41.4048 	 54.5503 	 104.19 	 
C 	 -41.9257 	 53.5491 	 104.952 	 
H 	 -40.3946 	 54.9506 	 104.356 	 
C 	 -41.6481 	 55.9631 	 102.035 	 
H 	 -42.268 	 55.8746 	 101.12 	 
H 	 -40.6344 	 55.7346 	 101.804 	 
C 	 -41.835 	 57.4564 	 102.38 	 
H 	 -41.2599 	 57.5962 	 103.303 	 
H 	 -41.2792 	 57.9391 	 101.552 	 
C 	 -43.2811 	 57.865 	 102.462 	 
H 	 -43.4023 	 58.9114 	 102.624 	 
H 	 -43.7703 	 57.6697 	 101.48 	 
H 	 -43.8733 	 57.4102 	 103.253 	 
S 	 -42.5778 	 53.4325 	 107.512 	 
C 	 -41.4929 	 52.8983 	 108.745 	 
C 	 -40.2692 	 52.5225 	 108.213 	 
C 	 -40.2513 	 52.6547 	 106.753 	 
C 	 -41.4411 	 53.1847 	 106.278 	 
H 	 -39.5058 	 52.2417 	 108.88 	 
C 	 -39.1797 	 52.1719 	 105.861 	 
H 	 -39.5033 	 52.3294 	 104.885 	 
H 	 -39.0937 	 51.0781 	 106.042 	 
C 	 -37.7836 	 52.8354 	 106.107 	 
H 	 -37.487 	 52.5769 	 107.164 	 
H 	 -37.9632 	 53.9133 	 106.239 	 
C 	 -36.6861 	 52.4027 	 105.152 	 
H 	 -36.3561 	 51.3571 	 105.319 	 
H 	 -35.887 	 53.0461 	 105.174 	 
H 	 -36.9455 	 52.4452 	 104.086 	 
H 	 -44.1235 	 54.6055 	 102.391 	 
H 	 -41.6044 	 52.9664 	 109.89 	 
