34

S 	 35.2171 	 11.0107 	 84.9875 	 
C 	 34.9448 	 10.0945 	 83.4672 	 
C 	 35.9937 	 9.27978 	 83.1349 	 
C 	 37.1503 	 9.69248 	 83.9383 	 
C 	 36.8831 	 10.5363 	 85.0258 	 
H 	 38.0767 	 9.05995 	 84.0303 	 
C 	 36.0149 	 8.25871 	 82.0408 	 
H 	 37.0325 	 7.82475 	 81.9855 	 
H 	 35.838 	 8.7099 	 81.0909 	 
C 	 35.0487 	 7.10113 	 82.2892 	 
H 	 35.4563 	 6.6026 	 83.1211 	 
H 	 34.0536 	 7.40288 	 82.6106 	 
C 	 34.7944 	 6.05679 	 81.1059 	 
H 	 34.2552 	 5.10708 	 81.2936 	 
H 	 34.2069 	 6.6419 	 80.3632 	 
H 	 35.7656 	 5.84404 	 80.6492 	 
S 	 36.8981 	 10.8732 	 87.7601 	 
C 	 38.3388 	 11.3028 	 88.5051 	 
C 	 39.4272 	 11.456 	 87.6669 	 
C 	 39.1059 	 11.1143 	 86.3077 	 
C 	 37.7356 	 10.8386 	 86.2195 	 
H 	 40.3829 	 11.7188 	 88.1168 	 
C 	 40.1586 	 11.1069 	 85.1237 	 
H 	 39.7052 	 11.3828 	 84.1877 	 
H 	 40.4032 	 10.0797 	 84.8516 	 
C 	 41.3459 	 12.1108 	 85.2995 	 
H 	 41.8395 	 11.7454 	 86.2605 	 
H 	 40.9313 	 13.0761 	 85.5388 	 
C 	 42.4214 	 12.1328 	 84.1981 	 
H 	 42.09 	 12.5375 	 83.2316 	 
H 	 42.8375 	 11.1093 	 83.9763 	 
H 	 43.3789 	 12.5672 	 84.4241 	 
H 	 34.0196 	 10.0719 	 82.8966 	 
H 	 38.4966 	 11.5037 	 89.5832 	 
