34

S 	 18.6007 	 -9.96412 	 81.7844 	 
C 	 18.7408 	 -11.6113 	 82.4743 	 
C 	 18.7708 	 -12.5454 	 81.4468 	 
C 	 18.5564 	 -11.9894 	 80.1444 	 
C 	 18.5524 	 -10.6157 	 80.1569 	 
H 	 18.3771 	 -12.4813 	 79.2328 	 
C 	 18.8382 	 -14.0392 	 81.6613 	 
H 	 18.5742 	 -14.2695 	 82.7215 	 
H 	 19.8897 	 -14.3306 	 81.3987 	 
C 	 17.9431 	 -14.9771 	 80.8266 	 
H 	 18.0153 	 -14.7418 	 79.761 	 
H 	 18.209 	 -16.0148 	 80.979 	 
C 	 16.457 	 -14.6657 	 81.2598 	 
H 	 16.2636 	 -13.6244 	 80.9949 	 
H 	 15.6584 	 -15.1763 	 80.6737 	 
H 	 16.2413 	 -14.885 	 82.2717 	 
S 	 19.2041 	 -8.17375 	 79.0062 	 
C 	 18.8685 	 -7.85019 	 77.3467 	 
C 	 18.1746 	 -8.89648 	 76.803 	 
C 	 18.0235 	 -10.0996 	 77.6804 	 
C 	 18.4977 	 -9.78616 	 78.9437 	 
H 	 17.7738 	 -8.87909 	 75.8249 	 
C 	 17.2603 	 -11.3875 	 77.2344 	 
H 	 16.2943 	 -11.1188 	 76.797 	 
H 	 16.9492 	 -11.9732 	 78.0825 	 
C 	 17.955 	 -12.1868 	 76.1298 	 
H 	 19.0624 	 -12.4162 	 76.4524 	 
H 	 18.1368 	 -11.5431 	 75.3004 	 
C 	 17.3528 	 -13.5217 	 75.7591 	 
H 	 17.7581 	 -13.9021 	 74.8638 	 
H 	 16.3013 	 -13.3537 	 75.6662 	 
H 	 17.534 	 -14.2294 	 76.5887 	 
H 	 18.9332 	 -11.7636 	 83.5681 	 
H 	 19.1245 	 -6.90813 	 76.8284 	 
