34

S 	 7.95581 	 -21.0029 	 87.0347 	 
C 	 7.70593 	 -21.6574 	 88.6356 	 
C 	 7.01046 	 -20.7954 	 89.4047 	 
C 	 6.86288 	 -19.533 	 88.799 	 
C 	 7.28824 	 -19.5075 	 87.4855 	 
H 	 6.47448 	 -18.634 	 89.2385 	 
C 	 6.48574 	 -21.0032 	 90.8295 	 
H 	 7.14348 	 -20.3836 	 91.3945 	 
H 	 6.68118 	 -22.0091 	 91.1966 	 
C 	 4.92067 	 -20.7568 	 90.9759 	 
H 	 4.70732 	 -20.6344 	 92.057 	 
H 	 4.59884 	 -19.8192 	 90.5445 	 
C 	 4.00467 	 -21.8504 	 90.3542 	 
H 	 4.2812 	 -22.0868 	 89.3557 	 
H 	 4.08345 	 -22.8401 	 90.9288 	 
H 	 2.94239 	 -21.4908 	 90.3385 	 
S 	 8.86064 	 -17.4551 	 86.5616 	 
C 	 8.06191 	 -16.0884 	 85.7706 	 
C 	 6.71445 	 -16.292 	 85.657 	 
C 	 6.28604 	 -17.5951 	 86.02 	 
C 	 7.31084 	 -18.3009 	 86.6861 	 
H 	 6.12321 	 -15.6194 	 85.0994 	 
C 	 4.77045 	 -17.941 	 85.962 	 
H 	 4.77359 	 -18.9294 	 86.4598 	 
H 	 4.35592 	 -18.2689 	 84.9478 	 
C 	 3.73352 	 -17.1091 	 86.7246 	 
H 	 3.84183 	 -16.0304 	 86.525 	 
H 	 3.95894 	 -17.2617 	 87.8057 	 
C 	 2.3123 	 -17.4182 	 86.3432 	 
H 	 2.07801 	 -17.0695 	 85.3389 	 
H 	 1.68703 	 -16.8602 	 87.0264 	 
H 	 2.05001 	 -18.4692 	 86.466 	 
H 	 8.18928 	 -22.5323 	 88.9637 	 
H 	 8.55238 	 -15.2215 	 85.3478 	 
