34

S 	 -67.2239 	 38.3011 	 131.307 	 
C 	 -66.3473 	 39.7601 	 130.955 	 
C 	 -65.8222 	 40.3045 	 132.094 	 
C 	 -65.9128 	 39.3728 	 133.205 	 
C 	 -66.5216 	 38.1711 	 132.83 	 
H 	 -65.4736 	 39.5503 	 134.154 	 
C 	 -64.9573 	 41.5261 	 132.204 	 
H 	 -64.0356 	 41.3206 	 131.751 	 
H 	 -64.6676 	 41.5843 	 133.247 	 
C 	 -65.5681 	 42.8761 	 131.638 	 
H 	 -64.6828 	 43.5369 	 131.728 	 
H 	 -65.8347 	 42.8435 	 130.546 	 
C 	 -66.8828 	 43.2686 	 132.36 	 
H 	 -67.7352 	 42.5445 	 132.343 	 
H 	 -66.5191 	 43.5387 	 133.356 	 
H 	 -67.3414 	 44.2315 	 132.003 	 
S 	 -68.6617 	 36.7565 	 133.906 	 
C 	 -68.413 	 35.5326 	 135.086 	 
C 	 -67.1023 	 35.5736 	 135.528 	 
C 	 -66.3074 	 36.501 	 134.797 	 
C 	 -66.9719 	 37.1342 	 133.779 	 
H 	 -66.8429 	 34.9344 	 136.381 	 
C 	 -64.7813 	 36.6658 	 135.018 	 
H 	 -64.5388 	 36.8434 	 136.11 	 
H 	 -64.4118 	 37.5709 	 134.57 	 
C 	 -63.805 	 35.5771 	 134.623 	 
H 	 -63.7087 	 34.8445 	 135.365 	 
H 	 -62.8085 	 36.0242 	 134.714 	 
C 	 -63.898 	 35.1307 	 133.212 	 
H 	 -64.9602 	 34.8018 	 133.055 	 
H 	 -63.2846 	 34.2965 	 132.853 	 
H 	 -63.6481 	 35.9155 	 132.476 	 
H 	 -66.3869 	 40.399 	 130.144 	 
H 	 -69.2497 	 35.0128 	 135.477 	 
