34

S 	 -77.3078 	 46.6278 	 124.92 	 
C 	 -77.237 	 44.9089 	 124.784 	 
C 	 -75.9534 	 44.3944 	 124.857 	 
C 	 -74.9764 	 45.3838 	 124.975 	 
C 	 -75.5036 	 46.6816 	 125.025 	 
H 	 -73.938 	 45.1538 	 125.142 	 
C 	 -75.5643 	 42.9321 	 124.835 	 
H 	 -76.464 	 42.2462 	 124.896 	 
H 	 -74.9052 	 42.7566 	 125.677 	 
C 	 -74.7448 	 42.5392 	 123.648 	 
H 	 -73.7617 	 42.9836 	 123.748 	 
H 	 -74.6592 	 41.4337 	 123.639 	 
C 	 -75.4798 	 42.8567 	 122.301 	 
H 	 -74.8348 	 42.6696 	 121.466 	 
H 	 -76.2922 	 42.1969 	 122.103 	 
H 	 -75.9685 	 43.7707 	 122.237 	 
S 	 -75.4208 	 49.0666 	 126.216 	 
C 	 -73.977 	 50.0103 	 126.134 	 
C 	 -73.0176 	 49.4956 	 125.328 	 
C 	 -73.4217 	 48.2004 	 124.841 	 
C 	 -74.702 	 47.872 	 125.186 	 
H 	 -72.2126 	 50.0471 	 125.082 	 
C 	 -72.3987 	 47.3314 	 123.98 	 
H 	 -71.963 	 48.0121 	 123.269 	 
H 	 -72.9473 	 46.7186 	 123.329 	 
C 	 -71.2735 	 46.431 	 124.711 	 
H 	 -71.6969 	 45.7082 	 125.409 	 
H 	 -70.5933 	 46.9148 	 125.357 	 
C 	 -70.3088 	 45.7555 	 123.733 	 
H 	 -69.9994 	 44.7981 	 124.086 	 
H 	 -69.5091 	 46.4355 	 123.622 	 
H 	 -70.5977 	 45.691 	 122.682 	 
H 	 -78.2037 	 44.4077 	 124.925 	 
H 	 -73.8025 	 50.8505 	 126.712 	 
