34

S 	 -105.422 	 41.2958 	 126.756 	 
C 	 -103.937 	 40.5506 	 126.333 	 
C 	 -102.883 	 41.4727 	 126.312 	 
C 	 -103.363 	 42.8055 	 126.558 	 
C 	 -104.698 	 42.904 	 126.768 	 
H 	 -102.678 	 43.6582 	 126.589 	 
C 	 -101.385 	 41.2344 	 126.153 	 
H 	 -100.87 	 42.1733 	 126.406 	 
H 	 -101.096 	 41.0069 	 125.132 	 
C 	 -100.866 	 40.1204 	 126.997 	 
H 	 -101.248 	 39.1494 	 126.607 	 
H 	 -99.778 	 39.9988 	 126.789 	 
C 	 -101.182 	 40.2857 	 128.484 	 
H 	 -101.136 	 41.3914 	 128.695 	 
H 	 -102.219 	 40.0394 	 128.583 	 
H 	 -100.635 	 39.7244 	 129.191 	 
S 	 -106.608 	 43.9599 	 128.51 	 
C 	 -106.946 	 45.6403 	 128.472 	 
C 	 -106.272 	 46.2604 	 127.474 	 
C 	 -105.459 	 45.4022 	 126.728 	 
C 	 -105.475 	 44.0999 	 127.168 	 
H 	 -106.582 	 47.2868 	 127.296 	 
C 	 -104.779 	 45.8258 	 125.422 	 
H 	 -103.811 	 45.481 	 125.141 	 
H 	 -104.658 	 46.8741 	 125.644 	 
C 	 -105.747 	 45.6322 	 124.252 	 
H 	 -106.65 	 45.9855 	 124.723 	 
H 	 -105.882 	 44.647 	 123.878 	 
C 	 -105.312 	 46.5651 	 123.176 	 
H 	 -104.344 	 46.3101 	 122.87 	 
H 	 -105.227 	 47.6217 	 123.514 	 
H 	 -105.846 	 46.4299 	 122.223 	 
H 	 -103.922 	 39.4606 	 126.136 	 
H 	 -107.759 	 46.1506 	 128.908 	 
