34

S 	 -98.3215 	 50.7917 	 122.722 	 
C 	 -97.0004 	 49.6533 	 122.622 	 
C 	 -96.9862 	 48.8774 	 123.792 	 
C 	 -97.9528 	 49.2471 	 124.771 	 
C 	 -98.8108 	 50.2474 	 124.308 	 
H 	 -98.0375 	 48.7964 	 125.746 	 
C 	 -96.0215 	 47.7565 	 124.197 	 
H 	 -95.5134 	 47.3232 	 123.337 	 
H 	 -96.6048 	 47.0512 	 124.677 	 
C 	 -94.8619 	 48.2053 	 125.065 	 
H 	 -94.2198 	 48.8156 	 124.454 	 
H 	 -95.2625 	 48.8665 	 125.862 	 
C 	 -94.0576 	 47.0774 	 125.755 	 
H 	 -93.3106 	 46.6196 	 125.071 	 
H 	 -93.3457 	 47.6878 	 126.37 	 
H 	 -94.4695 	 46.3497 	 126.412 	 
S 	 -101.631 	 50.5729 	 124.5 	 
C 	 -102.185 	 51.0264 	 126.074 	 
C 	 -101.169 	 51.5647 	 126.861 	 
C 	 -99.9215 	 51.5583 	 126.213 	 
C 	 -99.9347 	 50.9015 	 125.013 	 
H 	 -101.344 	 51.8963 	 127.862 	 
C 	 -98.6377 	 51.8719 	 126.925 	 
H 	 -98.0962 	 52.4935 	 126.269 	 
H 	 -98.1042 	 50.8885 	 126.994 	 
C 	 -98.7265 	 52.3795 	 128.372 	 
H 	 -99.4123 	 51.8331 	 129.009 	 
H 	 -99.2862 	 53.347 	 128.565 	 
C 	 -97.3938 	 52.4672 	 129.1 	 
H 	 -97.4481 	 52.8469 	 130.064 	 
H 	 -96.712 	 53.0492 	 128.539 	 
H 	 -96.8933 	 51.4896 	 129.199 	 
H 	 -96.2991 	 49.4334 	 121.783 	 
H 	 -103.168 	 50.8172 	 126.468 	 
