34

S 	 -45.7244 	 56.5824 	 101.704 	 
C 	 -46.5617 	 55.9796 	 100.313 	 
C 	 -46.368 	 54.6727 	 100.057 	 
C 	 -45.3091 	 54.1368 	 100.81 	 
C 	 -44.7775 	 55.091 	 101.654 	 
H 	 -44.8927 	 53.1093 	 100.734 	 
C 	 -47.0062 	 53.9158 	 98.8932 	 
H 	 -46.3718 	 53.1631 	 98.493 	 
H 	 -47.0467 	 54.6376 	 98.0993 	 
C 	 -48.2442 	 53.1635 	 99.1867 	 
H 	 -48.4081 	 52.5157 	 98.3158 	 
H 	 -48.2691 	 52.4807 	 100.058 	 
C 	 -49.5099 	 54.0061 	 99.3184 	 
H 	 -49.4783 	 54.7003 	 100.15 	 
H 	 -49.8351 	 54.5112 	 98.3746 	 
H 	 -50.251 	 53.2874 	 99.6521 	 
S 	 -42.0114 	 55.2868 	 101.381 	 
C 	 -41.0983 	 55.0161 	 102.833 	 
C 	 -41.8186 	 54.3697 	 103.801 	 
C 	 -43.2042 	 54.3655 	 103.571 	 
C 	 -43.4829 	 54.9654 	 102.332 	 
H 	 -41.2603 	 53.9949 	 104.668 	 
C 	 -44.1488 	 53.8672 	 104.622 	 
H 	 -44.9585 	 54.5918 	 104.643 	 
H 	 -43.6096 	 53.9577 	 105.56 	 
C 	 -44.5799 	 52.4498 	 104.36 	 
H 	 -44.8219 	 52.2038 	 103.327 	 
H 	 -45.4215 	 52.1063 	 104.984 	 
C 	 -43.4404 	 51.4265 	 104.774 	 
H 	 -42.5641 	 51.3948 	 104.107 	 
H 	 -43.9117 	 50.4325 	 104.705 	 
H 	 -43.0648 	 51.5294 	 105.846 	 
H 	 -47.3039 	 56.5265 	 99.7355 	 
H 	 -40.0328 	 54.9742 	 102.943 	 
