34

S 	 11.2298 	 21.6657 	 52.1723 	 
C 	 12.1077 	 21.5243 	 53.6137 	 
C 	 13.2429 	 22.389 	 53.5784 	 
C 	 13.1463 	 23.3353 	 52.5353 	 
C 	 12.0665 	 23.1468 	 51.6586 	 
H 	 13.9062 	 24.0114 	 52.2456 	 
C 	 14.3561 	 22.4683 	 54.6052 	 
H 	 15.2893 	 22.6192 	 54.0414 	 
H 	 14.4927 	 21.5661 	 55.1629 	 
C 	 14.0838 	 23.6255 	 55.6182 	 
H 	 13.6359 	 24.4897 	 55.1453 	 
H 	 13.3709 	 23.3445 	 56.3594 	 
C 	 15.2785 	 24.2026 	 56.3464 	 
H 	 14.949 	 25.1089 	 56.8602 	 
H 	 15.6393 	 23.4362 	 57.0777 	 
H 	 16.0568 	 24.3052 	 55.5904 	 
S 	 12.3849 	 23.6311 	 48.9619 	 
C 	 11.7098 	 25.091 	 48.2542 	 
C 	 10.8575 	 25.6644 	 49.2026 	 
C 	 10.8017 	 25.0699 	 50.4749 	 
C 	 11.6307 	 23.9497 	 50.5252 	 
H 	 10.1171 	 26.4432 	 49.0329 	 
C 	 9.8901 	 25.5587 	 51.5355 	 
H 	 9.66922 	 26.652 	 51.1993 	 
H 	 10.2934 	 25.5958 	 52.5916 	 
C 	 8.55113 	 24.7448 	 51.643 	 
H 	 8.6749 	 23.9409 	 52.3481 	 
H 	 8.35103 	 24.2949 	 50.715 	 
C 	 7.27854 	 25.5683 	 52.0342 	 
H 	 7.52746 	 26.0998 	 52.9774 	 
H 	 6.36419 	 25.0707 	 52.2076 	 
H 	 7.07614 	 26.2482 	 51.2963 	 
H 	 11.9075 	 20.8556 	 54.3713 	 
H 	 11.5588 	 25.2783 	 47.2058 	 
