34

S 	 -38.5133 	 14.1643 	 78.7016 	 
C 	 -37.2501 	 14.3365 	 77.4686 	 
C 	 -37.6133 	 15.3646 	 76.6004 	 
C 	 -38.8379 	 16.0141 	 77.0207 	 
C 	 -39.3143 	 15.5857 	 78.2457 	 
H 	 -39.2899 	 16.8405 	 76.51 	 
C 	 -36.9425 	 15.8101 	 75.2852 	 
H 	 -37.8097 	 16.1645 	 74.6523 	 
H 	 -36.6173 	 14.8901 	 74.8214 	 
C 	 -35.6171 	 16.5437 	 75.2192 	 
H 	 -34.9792 	 15.9236 	 75.7591 	 
H 	 -35.2384 	 16.6145 	 74.1947 	 
C 	 -35.6529 	 18.0252 	 75.8588 	 
H 	 -36.2194 	 18.1015 	 76.8025 	 
H 	 -34.5847 	 18.3329 	 76.0019 	 
H 	 -36.1695 	 18.7525 	 75.2421 	 
S 	 -40.2634 	 16.6154 	 80.5205 	 
C 	 -41.8271 	 17.2809 	 80.5632 	 
C 	 -42.6346 	 16.8038 	 79.5765 	 
C 	 -41.8696 	 16.1743 	 78.5446 	 
C 	 -40.5308 	 16.1036 	 78.862 	 
H 	 -43.7342 	 16.8992 	 79.5974 	 
C 	 -42.4525 	 15.6415 	 77.2482 	 
H 	 -41.8936 	 16.0337 	 76.3818 	 
H 	 -43.4601 	 16.0297 	 77.0225 	 
C 	 -42.6074 	 14.0905 	 77.226 	 
H 	 -41.6876 	 13.6375 	 77.5966 	 
H 	 -42.6661 	 13.6924 	 76.1435 	 
C 	 -43.7723 	 13.4714 	 78.0907 	 
H 	 -43.8966 	 12.3984 	 78.0662 	 
H 	 -44.6797 	 13.9778 	 77.9637 	 
H 	 -43.613 	 13.5311 	 79.1647 	 
H 	 -36.4537 	 13.6144 	 77.3004 	 
H 	 -42.2412 	 17.858 	 81.3797 	 
