34

S 	 6.91481 	 22.6023 	 53.7049 	 
C 	 8.40578 	 22.3144 	 52.8442 	 
C 	 9.17027 	 21.2192 	 53.2892 	 
C 	 8.40325 	 20.6071 	 54.3301 	 
C 	 7.08125 	 21.0242 	 54.5167 	 
H 	 8.72809 	 19.6604 	 54.8452 	 
C 	 10.4977 	 20.799 	 52.8442 	 
H 	 10.4304 	 20.6777 	 51.7563 	 
H 	 10.7721 	 19.8667 	 53.2304 	 
C 	 11.6677 	 21.7904 	 53.3145 	 
H 	 12.497 	 21.5598 	 52.6863 	 
H 	 11.3042 	 22.7654 	 53.1187 	 
C 	 11.8837 	 21.7972 	 54.808 	 
H 	 12.0611 	 20.865 	 55.337 	 
H 	 12.8489 	 22.3276 	 54.8457 	 
H 	 11.0653 	 22.3726 	 55.3001 	 
S 	 5.93369 	 21.91 	 56.7777 	 
C 	 4.81 	 20.922 	 57.5734 	 
C 	 5.11566 	 19.5934 	 57.3526 	 
C 	 5.8269 	 19.411 	 56.1596 	 
C 	 6.21116 	 20.6485 	 55.6421 	 
H 	 4.68883 	 18.8581 	 58.0504 	 
C 	 6.25902 	 18.0282 	 55.6592 	 
H 	 6.57298 	 18.126 	 54.6026 	 
H 	 5.37057 	 17.5017 	 55.5239 	 
C 	 7.30035 	 17.3828 	 56.5839 	 
H 	 6.78516 	 17.3641 	 57.5449 	 
H 	 8.15363 	 18.0344 	 56.755 	 
C 	 7.58374 	 15.9512 	 56.1531 	 
H 	 8.28188 	 15.8087 	 55.2934 	 
H 	 6.71285 	 15.3813 	 55.8517 	 
H 	 8.07392 	 15.5142 	 57.0217 	 
H 	 8.93447 	 23.0474 	 52.2281 	 
H 	 4.42132 	 21.1429 	 58.5681 	 
