34

S 	 -72.2335 	 57.5088 	 123.199 	 
C 	 -72.2665 	 59.0798 	 122.417 	 
C 	 -71.3795 	 59.9731 	 123.023 	 
C 	 -70.6196 	 59.3249 	 124.072 	 
C 	 -70.9528 	 58.0213 	 124.272 	 
H 	 -69.9534 	 59.8674 	 124.727 	 
C 	 -71.1734 	 61.4656 	 122.642 	 
H 	 -70.9168 	 61.3844 	 121.488 	 
H 	 -70.353 	 61.754 	 123.219 	 
C 	 -72.317 	 62.4041 	 123.003 	 
H 	 -73.1884 	 62.2816 	 122.371 	 
H 	 -72.6394 	 62.1315 	 124.013 	 
C 	 -71.74 	 63.8471 	 123.175 	 
H 	 -70.8703 	 63.9937 	 123.905 	 
H 	 -71.3134 	 63.9859 	 122.144 	 
H 	 -72.5507 	 64.6113 	 123.42 	 
S 	 -71.6897 	 56.4026 	 126.301 	 
C 	 -70.4405 	 55.6594 	 127.236 	 
C 	 -69.1855 	 55.8296 	 126.74 	 
C 	 -69.1349 	 56.7829 	 125.707 	 
C 	 -70.4435 	 57.2228 	 125.365 	 
H 	 -68.252 	 55.4251 	 127.19 	 
C 	 -67.8375 	 57.2126 	 124.931 	 
H 	 -67.6979 	 58.2349 	 124.646 	 
H 	 -67.9207 	 56.8121 	 123.872 	 
C 	 -66.5189 	 56.6328 	 125.508 	 
H 	 -66.5861 	 55.5584 	 125.687 	 
H 	 -66.3853 	 57.0599 	 126.505 	 
C 	 -65.305 	 56.8214 	 124.582 	 
H 	 -65.5087 	 56.5301 	 123.581 	 
H 	 -64.3825 	 56.2702 	 124.969 	 
H 	 -65.206 	 57.9274 	 124.469 	 
H 	 -72.9082 	 59.3548 	 121.531 	 
H 	 -70.5915 	 54.7623 	 127.762 	 
