34

S 	 -65.7394 	 62.0694 	 127.57 	 
C 	 -64.4142 	 63.2322 	 127.75 	 
C 	 -64.6585 	 64.4023 	 126.998 	 
C 	 -65.9655 	 64.3302 	 126.421 	 
C 	 -66.6899 	 63.1654 	 126.574 	 
H 	 -66.4891 	 65.1204 	 125.965 	 
C 	 -63.8457 	 65.7293 	 126.927 	 
H 	 -63.541 	 65.7755 	 125.908 	 
H 	 -62.9757 	 65.434 	 127.568 	 
C 	 -64.606 	 66.9697 	 127.538 	 
H 	 -65.3106 	 67.3033 	 126.782 	 
H 	 -65.2746 	 66.5806 	 128.349 	 
C 	 -63.8254 	 68.101 	 128.107 	 
H 	 -63.0036 	 68.3991 	 127.505 	 
H 	 -64.4221 	 69.0171 	 128.19 	 
H 	 -63.476 	 67.9016 	 129.122 	 
S 	 -69.3402 	 62.8908 	 127.16 	 
C 	 -70.42 	 62.5918 	 125.902 	 
C 	 -69.8447 	 62.6248 	 124.673 	 
C 	 -68.451 	 62.7187 	 124.695 	 
C 	 -68.0084 	 62.8541 	 125.992 	 
H 	 -70.4695 	 62.3518 	 123.808 	 
C 	 -67.4937 	 62.8129 	 123.434 	 
H 	 -66.9586 	 63.7657 	 123.455 	 
H 	 -68.2506 	 62.8486 	 122.638 	 
C 	 -66.6135 	 61.5745 	 123.176 	 
H 	 -67.3022 	 60.7263 	 123.202 	 
H 	 -65.8489 	 61.4151 	 124.004 	 
C 	 -65.74 	 61.7744 	 121.925 	 
H 	 -66.2562 	 62.1672 	 121.067 	 
H 	 -65.2672 	 60.8973 	 121.602 	 
H 	 -64.9662 	 62.4412 	 122.088 	 
H 	 -63.5923 	 63.0678 	 128.432 	 
H 	 -71.4696 	 62.2727 	 126.126 	 
