34

S 	 -50.6409 	 63.7378 	 129.825 	 
C 	 -49.5606 	 63.7957 	 128.48 	 
C 	 -49.426 	 62.5628 	 127.859 	 
C 	 -50.2581 	 61.6045 	 128.523 	 
C 	 -50.9767 	 62.1136 	 129.614 	 
H 	 -50.364 	 60.6239 	 128.136 	 
C 	 -48.6684 	 62.2891 	 126.583 	 
H 	 -47.8772 	 63.0056 	 126.64 	 
H 	 -49.3724 	 62.4501 	 125.822 	 
C 	 -48.0411 	 60.8632 	 126.482 	 
H 	 -47.661 	 60.5738 	 127.433 	 
H 	 -48.8141 	 60.2224 	 126.276 	 
C 	 -46.977 	 60.8025 	 125.394 	 
H 	 -47.4149 	 60.7519 	 124.431 	 
H 	 -46.4021 	 61.6731 	 125.558 	 
H 	 -46.4254 	 59.8584 	 125.576 	 
S 	 -53.3629 	 62.3841 	 131.206 	 
C 	 -54.1323 	 61.0087 	 131.8 	 
C 	 -53.5731 	 59.9098 	 131.195 	 
C 	 -52.5621 	 60.1742 	 130.251 	 
C 	 -52.1474 	 61.4904 	 130.244 	 
H 	 -53.8357 	 58.9256 	 131.528 	 
C 	 -51.8034 	 58.9384 	 129.789 	 
H 	 -51.6313 	 58.3537 	 130.604 	 
H 	 -50.7529 	 59.03 	 129.525 	 
C 	 -52.4954 	 57.9817 	 128.831 	 
H 	 -53.5265 	 57.7153 	 129.196 	 
H 	 -51.8015 	 57.0804 	 128.793 	 
C 	 -52.6647 	 58.5572 	 127.399 	 
H 	 -53.4137 	 59.364 	 127.36 	 
H 	 -53.0522 	 57.7002 	 126.869 	 
H 	 -51.7194 	 59.0054 	 127.066 	 
H 	 -49.0912 	 64.6563 	 128.069 	 
H 	 -54.8637 	 60.9968 	 132.646 	 
