34

S 	 -33.6376 	 46.6953 	 97.476 	 
C 	 -32.337 	 45.7815 	 96.8574 	 
C 	 -31.9387 	 46.2983 	 95.6465 	 
C 	 -32.6737 	 47.5939 	 95.3055 	 
C 	 -33.4976 	 48.02 	 96.3023 	 
H 	 -32.5067 	 48.2587 	 94.4378 	 
C 	 -30.9113 	 45.6697 	 94.7191 	 
H 	 -30.4947 	 44.8104 	 95.3172 	 
H 	 -30.1776 	 46.3805 	 94.4914 	 
C 	 -31.4951 	 45.1734 	 93.4053 	 
H 	 -32.2531 	 44.4155 	 93.6213 	 
H 	 -32.0368 	 45.9865 	 92.9024 	 
C 	 -30.4914 	 44.6904 	 92.3228 	 
H 	 -30.9812 	 44.339 	 91.4072 	 
H 	 -29.7281 	 45.4567 	 92.1082 	 
H 	 -29.876 	 43.9941 	 92.8093 	 
S 	 -35.9935 	 49.047 	 97.2241 	 
C 	 -36.176 	 50.7353 	 97.1485 	 
C 	 -35.0746 	 51.4426 	 96.736 	 
C 	 -34.029 	 50.5395 	 96.3786 	 
C 	 -34.3808 	 49.2172 	 96.4923 	 
H 	 -35.0799 	 52.549 	 96.7009 	 
C 	 -32.6399 	 51.0527 	 95.9426 	 
H 	 -32.8328 	 52.0486 	 95.5352 	 
H 	 -32.2821 	 50.3197 	 95.1661 	 
C 	 -31.4927 	 51.173 	 97.0135 	 
H 	 -31.2246 	 50.1911 	 97.2754 	 
H 	 -31.8924 	 51.8312 	 97.8028 	 
C 	 -30.1796 	 51.7874 	 96.3745 	 
H 	 -29.4512 	 51.8562 	 97.1882 	 
H 	 -30.2866 	 52.8433 	 96.0151 	 
H 	 -29.755 	 51.107 	 95.5941 	 
H 	 -32.1016 	 44.8348 	 97.252 	 
H 	 -37.095 	 51.3133 	 97.4574 	 
