34

S 	 45.6431 	 23.8447 	 89.6641 	 
C 	 45.7614 	 24.6373 	 91.2078 	 
C 	 44.6108 	 25.4276 	 91.3811 	 
C 	 43.7075 	 25.4738 	 90.2217 	 
C 	 44.1272 	 24.6341 	 89.2254 	 
H 	 42.8408 	 26.0719 	 90.0529 	 
C 	 44.3916 	 26.3578 	 92.5742 	 
H 	 45.107 	 26.1706 	 93.3332 	 
H 	 43.3918 	 26.1567 	 93.0669 	 
C 	 44.3749 	 27.9166 	 92.1727 	 
H 	 45.2571 	 28.1117 	 91.6324 	 
H 	 43.5445 	 27.9604 	 91.498 	 
C 	 44.1311 	 28.9151 	 93.2852 	 
H 	 43.3818 	 28.6003 	 94.0157 	 
H 	 44.9842 	 28.9922 	 93.9479 	 
H 	 43.9481 	 29.898 	 92.8316 	 
S 	 44.7727 	 24.7272 	 86.538 	 
C 	 43.4614 	 24.854 	 85.3351 	 
C 	 42.2297 	 24.7637 	 85.9595 	 
C 	 42.2855 	 24.6439 	 87.3663 	 
C 	 43.5758 	 24.6354 	 87.854 	 
H 	 41.2513 	 24.7495 	 85.4036 	 
C 	 41.035 	 24.4292 	 88.2454 	 
H 	 40.5068 	 25.3777 	 88.5272 	 
H 	 41.3211 	 23.9567 	 89.2219 	 
C 	 39.8841 	 23.576 	 87.6218 	 
H 	 40.2935 	 22.601 	 87.2343 	 
H 	 39.4762 	 24.1836 	 86.8217 	 
C 	 38.8748 	 23.3796 	 88.6304 	 
H 	 39.2917 	 22.6672 	 89.3176 	 
H 	 37.934 	 23.0474 	 88.1574 	 
H 	 38.8144 	 24.2754 	 89.1661 	 
H 	 46.5203 	 24.3857 	 91.9497 	 
H 	 43.6292 	 24.7784 	 84.2647 	 
