34

S 	 17.6716 	 12.1544 	 88.5757 	 
C 	 19.2013 	 12.5302 	 87.6467 	 
C 	 18.9175 	 12.858 	 86.3198 	 
C 	 17.5084 	 12.7256 	 86.0566 	 
C 	 16.6819 	 12.3988 	 87.1503 	 
H 	 17.0118 	 12.9616 	 85.1042 	 
C 	 19.8923 	 13.2859 	 85.2033 	 
H 	 19.4042 	 13.1585 	 84.2543 	 
H 	 20.8446 	 12.6376 	 85.2896 	 
C 	 20.2863 	 14.7691 	 85.3895 	 
H 	 20.4996 	 15.0726 	 86.4036 	 
H 	 21.093 	 15.0581 	 84.7652 	 
C 	 19.0917 	 15.6413 	 84.8532 	 
H 	 18.1329 	 15.5269 	 85.3734 	 
H 	 19.3589 	 16.7124 	 84.9436 	 
H 	 18.9235 	 15.5923 	 83.7733 	 
S 	 14.209 	 13.7786 	 87.4869 	 
C 	 12.7754 	 13.0216 	 87.0508 	 
C 	 12.9608 	 11.7541 	 86.6137 	 
C 	 14.3661 	 11.4547 	 86.4321 	 
C 	 15.2014 	 12.3619 	 87.0732 	 
H 	 12.075 	 11.1303 	 86.4464 	 
C 	 14.785 	 10.0691 	 85.8058 	 
H 	 15.4494 	 10.1219 	 84.9956 	 
H 	 13.8784 	 9.81811 	 85.3077 	 
C 	 15.287 	 9.01283 	 86.6641 	 
H 	 16.343 	 8.88882 	 86.733 	 
H 	 14.9415 	 8.05754 	 86.2324 	 
C 	 14.6276 	 9.09206 	 88.0783 	 
H 	 14.9142 	 8.19546 	 88.7019 	 
H 	 13.6414 	 8.98895 	 87.9846 	 
H 	 14.8695 	 9.99431 	 88.6116 	 
H 	 20.2152 	 12.4303 	 88.0927 	 
H 	 11.8589 	 13.6036 	 87.0642 	 
