34

S 	 -14.4742 	 35.4024 	 34.4001 	 
C 	 -13.2647 	 34.2283 	 34.4538 	 
C 	 -13.1159 	 33.7507 	 35.7202 	 
C 	 -13.8472 	 34.4665 	 36.7039 	 
C 	 -14.8069 	 35.2611 	 36.1517 	 
H 	 -13.6936 	 34.3475 	 37.7332 	 
C 	 -11.9514 	 32.8678 	 36.2457 	 
H 	 -11.535 	 33.2465 	 37.1813 	 
H 	 -11.0948 	 32.9815 	 35.6025 	 
C 	 -12.2424 	 31.4293 	 36.3615 	 
H 	 -12.5253 	 31.1087 	 35.3304 	 
H 	 -11.3718 	 30.9257 	 36.7499 	 
C 	 -13.2567 	 30.9819 	 37.4477 	 
H 	 -14.2123 	 31.552 	 37.2731 	 
H 	 -13.522 	 29.9331 	 37.3427 	 
H 	 -12.9679 	 31.1917 	 38.47 	 
S 	 -16.8773 	 37.0168 	 35.6643 	 
C 	 -17.6808 	 37.7483 	 37.0669 	 
C 	 -17.1074 	 37.3988 	 38.2482 	 
C 	 -16.2094 	 36.321 	 38.1091 	 
C 	 -15.7995 	 36.1236 	 36.7706 	 
H 	 -17.4252 	 37.8424 	 39.1542 	 
C 	 -15.5649 	 35.833 	 39.4091 	 
H 	 -15.5646 	 36.5828 	 40.1717 	 
H 	 -14.4942 	 35.613 	 39.2424 	 
C 	 -16.2269 	 34.5909 	 39.9676 	 
H 	 -16.1029 	 33.7004 	 39.3731 	 
H 	 -17.2721 	 34.7379 	 40.1029 	 
C 	 -15.7787 	 34.1923 	 41.3386 	 
H 	 -16.1431 	 33.2132 	 41.5665 	 
H 	 -16.1146 	 34.9012 	 42.0848 	 
H 	 -14.7755 	 34.2598 	 41.4427 	 
H 	 -12.5421 	 34.0032 	 33.6626 	 
H 	 -18.4859 	 38.4798 	 36.9109 	 
