34

S 	 -2.47356 	 76.6437 	 54.116 	 
C 	 -1.36635 	 75.2663 	 54.4887 	 
C 	 -1.9154 	 74.0543 	 54.0415 	 
C 	 -3.07648 	 74.3044 	 53.2646 	 
C 	 -3.27191 	 75.6635 	 52.9987 	 
H 	 -3.76448 	 73.5563 	 52.7601 	 
C 	 -1.50104 	 72.6059 	 54.298 	 
H 	 -2.36338 	 72.0281 	 54.0125 	 
H 	 -1.30239 	 72.4607 	 55.369 	 
C 	 -0.329727 	 72.1208 	 53.4927 	 
H 	 -0.348933 	 72.4848 	 52.4688 	 
H 	 0.622919 	 72.4248 	 53.8581 	 
C 	 -0.230641 	 70.5578 	 53.493 	 
H 	 0.149323 	 70.0692 	 54.3937 	 
H 	 -1.19523 	 69.9571 	 53.3503 	 
H 	 0.297761 	 70.2587 	 52.6178 	 
S 	 -5.55717 	 76.9171 	 52.1893 	 
C 	 -6.00091 	 76.8504 	 50.4656 	 
C 	 -4.96503 	 76.3247 	 49.7482 	 
C 	 -3.81587 	 75.9845 	 50.5802 	 
C 	 -4.04235 	 76.1746 	 51.8994 	 
H 	 -4.96261 	 76.4741 	 48.7049 	 
C 	 -2.56522 	 75.4981 	 50.0134 	 
H 	 -2.81855 	 74.7311 	 49.272 	 
H 	 -1.9931 	 74.9706 	 50.8005 	 
C 	 -1.80196 	 76.6061 	 49.3687 	 
H 	 -2.3591 	 77.0804 	 48.5587 	 
H 	 -0.955146 	 75.9681 	 48.9891 	 
C 	 -1.24506 	 77.5866 	 50.4078 	 
H 	 -1.94835 	 78.3114 	 50.8294 	 
H 	 -0.366932 	 78.1846 	 50.0601 	 
H 	 -0.918711 	 77.0201 	 51.3261 	 
H 	 -0.51703 	 75.2269 	 55.1699 	 
H 	 -6.80959 	 77.3862 	 50.0273 	 
