34

S 	 37.8945 	 26.0505 	 50.05 	 
C 	 38.7959 	 26.7977 	 51.3803 	 
C 	 39.4956 	 27.9203 	 50.913 	 
C 	 39.2413 	 28.1296 	 49.4737 	 
C 	 38.2924 	 27.3562 	 48.9046 	 
H 	 39.7146 	 28.9158 	 48.9509 	 
C 	 40.2754 	 28.9224 	 51.7224 	 
H 	 40.162 	 28.4947 	 52.6791 	 
H 	 39.846 	 29.9218 	 51.6461 	 
C 	 41.7506 	 29.0583 	 51.2342 	 
H 	 41.9143 	 29.7286 	 50.4227 	 
H 	 42.3232 	 29.4949 	 51.9706 	 
C 	 42.4792 	 27.7762 	 50.8684 	 
H 	 42.1089 	 26.8516 	 51.3547 	 
H 	 42.6447 	 27.5569 	 49.8209 	 
H 	 43.498 	 27.9797 	 51.239 	 
S 	 38.0128 	 25.4022 	 47.0115 	 
C 	 38.1938 	 25.7682 	 45.3845 	 
C 	 38.0591 	 27.1398 	 45.1707 	 
C 	 37.9889 	 27.9111 	 46.3874 	 
C 	 38.1487 	 27.0607 	 47.4933 	 
H 	 38.0249 	 27.555 	 44.1313 	 
C 	 37.7651 	 29.4171 	 46.4057 	 
H 	 38.2285 	 29.6963 	 45.4958 	 
H 	 38.4045 	 29.8531 	 47.1889 	 
C 	 36.3561 	 29.9744 	 46.4836 	 
H 	 36.4558 	 31.1183 	 46.2955 	 
H 	 36.1033 	 29.9605 	 47.5577 	 
C 	 35.3114 	 29.1712 	 45.616 	 
H 	 34.5546 	 29.8294 	 45.1955 	 
H 	 34.7902 	 28.3542 	 46.1146 	 
H 	 35.8312 	 28.6444 	 44.7991 	 
H 	 38.6788 	 26.4795 	 52.3698 	 
H 	 38.2405 	 25.0399 	 44.6523 	 
