34

S 	 -117.588 	 48.6643 	 129.908 	 
C 	 -117.919 	 49.2365 	 131.549 	 
C 	 -117.21 	 48.4195 	 132.46 	 
C 	 -116.621 	 47.3338 	 131.841 	 
C 	 -116.763 	 47.2271 	 130.458 	 
H 	 -116.144 	 46.455 	 132.211 	 
C 	 -117.237 	 48.4942 	 133.996 	 
H 	 -116.537 	 49.3334 	 134.263 	 
H 	 -116.815 	 47.6048 	 134.463 	 
C 	 -118.641 	 48.8181 	 134.548 	 
H 	 -118.567 	 49.0732 	 135.617 	 
H 	 -119.05 	 49.7145 	 134.091 	 
C 	 -119.532 	 47.5714 	 134.509 	 
H 	 -120.519 	 47.7438 	 134.921 	 
H 	 -119.663 	 47.1793 	 133.522 	 
H 	 -119.175 	 46.7275 	 135.224 	 
S 	 -117.696 	 45.1564 	 129.004 	 
C 	 -116.57 	 44.0404 	 128.201 	 
C 	 -115.322 	 44.5349 	 128.19 	 
C 	 -115.201 	 45.7436 	 128.921 	 
C 	 -116.372 	 46.1286 	 129.561 	 
H 	 -114.583 	 44.0591 	 127.62 	 
C 	 -113.88 	 46.4758 	 128.942 	 
H 	 -113.174 	 45.6841 	 128.878 	 
H 	 -113.675 	 46.8947 	 129.91 	 
C 	 -113.587 	 47.3804 	 127.751 	 
H 	 -114.072 	 47.0418 	 126.869 	 
H 	 -112.502 	 47.5253 	 127.471 	 
C 	 -114.225 	 48.7579 	 127.946 	 
H 	 -113.936 	 49.1164 	 128.927 	 
H 	 -115.318 	 48.7531 	 127.791 	 
H 	 -113.769 	 49.4756 	 127.22 	 
H 	 -118.376 	 50.1786 	 131.859 	 
H 	 -116.892 	 43.2303 	 127.588 	 
