34

S 	 -38.0946 	 42.52 	 93.4668 	 
C 	 -39.6227 	 42.7967 	 92.8079 	 
C 	 -40.4602 	 41.692 	 92.9364 	 
C 	 -39.911 	 40.6742 	 93.7959 	 
C 	 -38.5986 	 40.9911 	 94.164 	 
H 	 -40.3621 	 39.846 	 94.2179 	 
C 	 -41.7795 	 41.4532 	 92.1806 	 
H 	 -41.5575 	 40.7114 	 91.372 	 
H 	 -42.0274 	 42.3661 	 91.6611 	 
C 	 -43.0531 	 41.1411 	 92.9889 	 
H 	 -42.9078 	 40.361 	 93.6909 	 
H 	 -43.4068 	 42.0481 	 93.4338 	 
C 	 -44.26 	 40.7513 	 92.1788 	 
H 	 -45.1271 	 40.4479 	 92.7493 	 
H 	 -44.486 	 41.598 	 91.4934 	 
H 	 -44.0862 	 39.9774 	 91.4684 	 
S 	 -36.0047 	 40.194 	 94.9687 	 
C 	 -35.8733 	 39.473 	 96.555 	 
C 	 -37.073 	 39.2098 	 97.1162 	 
C 	 -38.2185 	 39.624 	 96.3732 	 
C 	 -37.8219 	 40.2756 	 95.1447 	 
H 	 -37.0636 	 38.8184 	 98.129 	 
C 	 -39.6395 	 39.4545 	 96.9299 	 
H 	 -40.3095 	 40.2185 	 96.4204 	 
H 	 -39.5799 	 39.7052 	 97.942 	 
C 	 -40.2473 	 38.014 	 96.8156 	 
H 	 -39.459 	 37.3307 	 96.9955 	 
H 	 -40.524 	 37.8984 	 95.7524 	 
C 	 -41.377 	 37.7568 	 97.8384 	 
H 	 -41.0533 	 38.0413 	 98.8171 	 
H 	 -41.6903 	 36.7273 	 97.9368 	 
H 	 -42.2512 	 38.3256 	 97.6043 	 
H 	 -39.8741 	 43.7452 	 92.3533 	 
H 	 -34.953 	 39.0461 	 96.9558 	 
