34

S 	 10.6353 	 -11.2058 	 90.3746 	 
C 	 11.824 	 -12.2573 	 89.7805 	 
C 	 11.3641 	 -13.569 	 89.5853 	 
C 	 9.93901 	 -13.5692 	 89.6909 	 
C 	 9.31982 	 -12.4225 	 90.2184 	 
H 	 9.3355 	 -14.3448 	 89.3591 	 
C 	 12.1271 	 -14.7439 	 89.0336 	 
H 	 12.2072 	 -14.5939 	 87.9533 	 
H 	 11.4739 	 -15.6062 	 89.0864 	 
C 	 13.5192 	 -15.0406 	 89.6624 	 
H 	 14.0069 	 -15.8962 	 89.2152 	 
H 	 14.2476 	 -14.1762 	 89.4992 	 
C 	 13.4347 	 -15.4081 	 91.187 	 
H 	 13.2541 	 -14.5808 	 91.9446 	 
H 	 12.6297 	 -16.0858 	 91.4118 	 
H 	 14.4126 	 -15.8585 	 91.5056 	 
S 	 7.19409 	 -10.995 	 89.2652 	 
C 	 5.63736 	 -11.2887 	 89.9401 	 
C 	 5.58416 	 -12.3538 	 90.8086 	 
C 	 6.87207 	 -12.9485 	 90.9467 	 
C 	 7.86597 	 -12.1895 	 90.4163 	 
H 	 4.6387 	 -12.6081 	 91.2341 	 
C 	 7.14883 	 -14.1855 	 91.8826 	 
H 	 7.5769 	 -15.0285 	 91.2751 	 
H 	 6.21657 	 -14.5108 	 92.2203 	 
C 	 8.09757 	 -13.8372 	 93.0494 	 
H 	 7.591 	 -13.063 	 93.6108 	 
H 	 9.06636 	 -13.4399 	 92.8219 	 
C 	 8.35908 	 -14.9709 	 94.0479 	 
H 	 7.47239 	 -15.457 	 94.4145 	 
H 	 8.90907 	 -14.5824 	 94.8558 	 
H 	 8.89307 	 -15.7873 	 93.6175 	 
H 	 12.8054 	 -11.848 	 89.5939 	 
H 	 4.77563 	 -10.6859 	 89.5816 	 
