34

S 	 -25.1257 	 43.0702 	 59.0425 	 
C 	 -25.912 	 44.5678 	 59.5638 	 
C 	 -25.939 	 45.4345 	 58.4684 	 
C 	 -25.3865 	 44.885 	 57.3096 	 
C 	 -24.9835 	 43.5506 	 57.3341 	 
H 	 -25.2418 	 45.3888 	 56.3985 	 
C 	 -26.3359 	 46.8935 	 58.5113 	 
H 	 -27.4538 	 46.871 	 58.6463 	 
H 	 -26.0096 	 47.2839 	 57.5597 	 
C 	 -25.5912 	 47.8008 	 59.5728 	 
H 	 -25.9299 	 48.7852 	 59.3696 	 
H 	 -25.908 	 47.5762 	 60.6385 	 
C 	 -24.0044 	 47.7572 	 59.3751 	 
H 	 -23.7588 	 48.3208 	 58.4966 	 
H 	 -23.5532 	 48.1881 	 60.2271 	 
H 	 -23.6978 	 46.6754 	 59.2975 	 
S 	 -22.4494 	 42.6749 	 56.7448 	 
C 	 -22.15 	 42.0602 	 55.1773 	 
C 	 -23.2785 	 41.9566 	 54.4648 	 
C 	 -24.4668 	 42.3781 	 55.1226 	 
C 	 -24.157 	 42.89 	 56.3318 	 
H 	 -23.2433 	 41.5813 	 53.4925 	 
C 	 -25.8775 	 42.2444 	 54.5698 	 
H 	 -25.7829 	 42.4542 	 53.4596 	 
H 	 -26.523 	 43.061 	 54.8451 	 
C 	 -26.424 	 40.8813 	 54.8098 	 
H 	 -27.4938 	 40.8528 	 54.6887 	 
H 	 -26.3655 	 40.6002 	 55.9276 	 
C 	 -25.8754 	 39.7105 	 53.8623 	 
H 	 -26.259 	 38.6572 	 54.1542 	 
H 	 -24.7983 	 39.5616 	 53.8111 	 
H 	 -26.2714 	 39.9588 	 52.8794 	 
H 	 -26.3088 	 44.7816 	 60.55 	 
H 	 -21.116 	 41.7993 	 54.9279 	 
