34

S 	 -70.0058 	 42.2879 	 120.204 	 
C 	 -71.8011 	 42.6185 	 120.291 	 
C 	 -72.4194 	 41.9942 	 121.387 	 
C 	 -71.4757 	 41.2089 	 122.11 	 
C 	 -70.1175 	 41.4816 	 121.737 	 
H 	 -71.632 	 40.4969 	 122.931 	 
C 	 -73.936 	 41.9633 	 121.813 	 
H 	 -73.9965 	 41.7093 	 122.877 	 
H 	 -74.3962 	 41.2334 	 121.211 	 
C 	 -74.7515 	 43.2581 	 121.554 	 
H 	 -74.4688 	 44.021 	 122.243 	 
H 	 -74.4252 	 43.5872 	 120.598 	 
C 	 -76.2412 	 43.1083 	 121.601 	 
H 	 -76.6488 	 44.1013 	 121.274 	 
H 	 -76.6662 	 42.3493 	 120.952 	 
H 	 -76.571 	 42.9703 	 122.69 	 
S 	 -68.0905 	 39.6408 	 121.096 	 
C 	 -67.1084 	 39.0307 	 122.365 	 
C 	 -67.428 	 39.6118 	 123.566 	 
C 	 -68.4771 	 40.5515 	 123.499 	 
C 	 -69.0115 	 40.6691 	 122.195 	 
H 	 -66.9054 	 39.2805 	 124.444 	 
C 	 -69.0062 	 41.2282 	 124.78 	 
H 	 -69.7433 	 42.0103 	 124.438 	 
H 	 -68.1431 	 41.7372 	 125.168 	 
C 	 -69.6546 	 40.2394 	 125.775 	 
H 	 -69.0708 	 39.3331 	 125.922 	 
H 	 -70.4217 	 39.8748 	 125.096 	 
C 	 -70.3035 	 40.6436 	 127.041 	 
H 	 -69.7125 	 40.1558 	 127.769 	 
H 	 -71.3521 	 40.4043 	 127.205 	 
H 	 -70.0392 	 41.6827 	 127.203 	 
H 	 -72.4079 	 43.2805 	 119.688 	 
H 	 -66.2838 	 38.3029 	 122.271 	 
