34

S 	 43.8499 	 8.46303 	 85.7736 	 
C 	 45.1959 	 9.62281 	 85.968 	 
C 	 45.4805 	 9.69172 	 87.3023 	 
C 	 44.6276 	 8.88149 	 88.1266 	 
C 	 43.7139 	 8.15891 	 87.4389 	 
H 	 44.5976 	 8.81093 	 89.1794 	 
C 	 46.645 	 10.3955 	 87.9464 	 
H 	 46.48 	 10.3379 	 89.0126 	 
H 	 46.6441 	 11.4461 	 87.5854 	 
C 	 48.0291 	 9.82224 	 87.5777 	 
H 	 48.2291 	 9.98517 	 86.4567 	 
H 	 48.7989 	 10.3809 	 88.1594 	 
C 	 48.0721 	 8.38044 	 88.0403 	 
H 	 47.2733 	 7.81008 	 87.6349 	 
H 	 49.0489 	 8.04085 	 87.8452 	 
H 	 48.2002 	 8.3942 	 89.1052 	 
S 	 41.0794 	 7.49448 	 87.284 	 
C 	 40.5356 	 6.02227 	 88.0046 	 
C 	 41.4521 	 5.3909 	 88.7982 	 
C 	 42.6909 	 6.1531 	 88.8454 	 
C 	 42.6511 	 7.26813 	 87.9943 	 
H 	 41.2896 	 4.41777 	 89.3635 	 
C 	 43.8565 	 5.64425 	 89.6321 	 
H 	 43.5605 	 5.44041 	 90.6031 	 
H 	 44.5186 	 6.44473 	 89.7434 	 
C 	 44.5344 	 4.46012 	 88.9346 	 
H 	 44.8415 	 4.73762 	 87.8902 	 
H 	 43.8507 	 3.62766 	 88.7992 	 
C 	 45.7152 	 3.87439 	 89.6812 	 
H 	 46.2597 	 4.64297 	 90.2223 	 
H 	 46.3809 	 3.38084 	 89.0876 	 
H 	 45.3529 	 3.20102 	 90.476 	 
H 	 45.6817 	 10.3041 	 85.284 	 
H 	 39.5398 	 5.62379 	 87.9531 	 
