34

S 	 -49.6019 	 36.3352 	 109.091 	 
C 	 -48.6981 	 37.8981 	 109.104 	 
C 	 -49.3851 	 38.9393 	 108.487 	 
C 	 -50.6924 	 38.4983 	 108.112 	 
C 	 -50.9823 	 37.1858 	 108.399 	 
H 	 -51.4174 	 39.064 	 107.562 	 
C 	 -48.8165 	 40.364 	 108.308 	 
H 	 -48.5416 	 40.6243 	 107.29 	 
H 	 -47.8976 	 40.4188 	 108.925 	 
C 	 -49.6553 	 41.4908 	 108.826 	 
H 	 -50.4953 	 41.4965 	 108.174 	 
H 	 -49.9595 	 41.3196 	 109.855 	 
C 	 -48.9418 	 42.8288 	 108.805 	 
H 	 -48.7322 	 43.116 	 107.796 	 
H 	 -49.671 	 43.5612 	 109.13 	 
H 	 -48.0195 	 42.7925 	 109.428 	 
S 	 -52.0848 	 34.7992 	 107.611 	 
C 	 -53.7863 	 34.5727 	 107.286 	 
C 	 -54.3789 	 35.8262 	 107.374 	 
C 	 -53.49 	 36.8885 	 107.803 	 
C 	 -52.1955 	 36.4872 	 108.01 	 
H 	 -55.3768 	 36.0085 	 107.16 	 
C 	 -54.0997 	 38.2264 	 108.16 	 
H 	 -53.4082 	 38.7779 	 108.775 	 
H 	 -54.8804 	 38.0561 	 108.965 	 
C 	 -54.7515 	 39.1001 	 107.054 	 
H 	 -55.4557 	 39.7394 	 107.541 	 
H 	 -55.3956 	 38.4854 	 106.422 	 
C 	 -53.7331 	 39.8692 	 106.24 	 
H 	 -53.1965 	 40.577 	 106.847 	 
H 	 -54.2162 	 40.4439 	 105.449 	 
H 	 -52.9726 	 39.2339 	 105.85 	 
H 	 -47.7276 	 37.9947 	 109.53 	 
H 	 -54.3444 	 33.6336 	 107.001 	 
