34

S 	 57.5926 	 -4.67041 	 86.8992 	 
C 	 56.0324 	 -4.43399 	 87.6284 	 
C 	 55.8704 	 -3.12478 	 88.1378 	 
C 	 57.0018 	 -2.27847 	 87.7448 	 
C 	 58.0402 	 -2.97976 	 87.0855 	 
H 	 57.0435 	 -1.23584 	 87.8934 	 
C 	 54.6439 	 -2.6157 	 88.9151 	 
H 	 54.6166 	 -3.19996 	 89.7954 	 
H 	 53.7799 	 -3.07791 	 88.4347 	 
C 	 54.4359 	 -1.12419 	 89.0075 	 
H 	 55.3549 	 -0.572067 	 89.3618 	 
H 	 54.3039 	 -0.659316 	 87.9779 	 
C 	 53.3893 	 -0.677334 	 90.0084 	 
H 	 53.7223 	 -1.01758 	 91.008 	 
H 	 53.1329 	 0.373199 	 89.9881 	 
H 	 52.5053 	 -1.25969 	 89.7822 	 
S 	 59.8052 	 -3.25918 	 84.9485 	 
C 	 61.1625 	 -2.17834 	 85.0284 	 
C 	 61.1106 	 -1.23899 	 86.0171 	 
C 	 59.9046 	 -1.38102 	 86.7774 	 
C 	 59.1289 	 -2.41869 	 86.324 	 
H 	 61.8741 	 -0.509921 	 86.0557 	 
C 	 59.6991 	 -0.31221 	 87.8954 	 
H 	 58.8074 	 0.282998 	 87.7653 	 
H 	 60.4495 	 0.374686 	 87.6922 	 
C 	 59.8012 	 -0.850709 	 89.4006 	 
H 	 60.7585 	 -1.391 	 89.6039 	 
H 	 59.0118 	 -1.62396 	 89.6227 	 
C 	 59.7774 	 0.369069 	 90.3426 	 
H 	 59.74 	 0.107671 	 91.4249 	 
H 	 58.8852 	 0.956784 	 90.1175 	 
H 	 60.7403 	 0.762337 	 90.1987 	 
H 	 55.1984 	 -5.14432 	 87.8454 	 
H 	 61.8716 	 -2.07401 	 84.1855 	 
