34

S 	 -65.6886 	 54.2953 	 131.519 	 
C 	 -65.1295 	 54.1179 	 133.154 	 
C 	 -65.719 	 55.0945 	 133.928 	 
C 	 -66.5825 	 56.0215 	 133.22 	 
C 	 -66.8088 	 55.6006 	 131.952 	 
H 	 -67.1143 	 56.8562 	 133.574 	 
C 	 -65.4444 	 55.3335 	 135.419 	 
H 	 -65.7959 	 56.3455 	 135.742 	 
H 	 -64.3448 	 55.4125 	 135.694 	 
C 	 -66.1784 	 54.2847 	 136.204 	 
H 	 -67.2309 	 54.2479 	 135.751 	 
H 	 -65.6857 	 53.3029 	 136.136 	 
C 	 -66.2458 	 54.7968 	 137.7 	 
H 	 -66.7594 	 54.1619 	 138.413 	 
H 	 -65.2241 	 55.0691 	 138.017 	 
H 	 -66.8918 	 55.6723 	 137.637 	 
S 	 -68.5374 	 55.0714 	 129.877 	 
C 	 -69.0966 	 56.3303 	 128.864 	 
C 	 -68.9182 	 57.5638 	 129.399 	 
C 	 -68.0719 	 57.497 	 130.585 	 
C 	 -67.7534 	 56.1437 	 130.946 	 
H 	 -69.224 	 58.4473 	 128.974 	 
C 	 -67.5767 	 58.7473 	 131.283 	 
H 	 -67.4495 	 59.4553 	 130.495 	 
H 	 -66.7002 	 58.5731 	 131.765 	 
C 	 -68.4871 	 59.5049 	 132.352 	 
H 	 -67.7691 	 59.9843 	 133.053 	 
H 	 -69.0525 	 58.7229 	 132.893 	 
C 	 -69.6319 	 60.3157 	 131.728 	 
H 	 -70.2127 	 59.6338 	 131.146 	 
H 	 -69.342 	 61.0091 	 130.953 	 
H 	 -70.4553 	 60.7877 	 132.275 	 
H 	 -64.4546 	 53.4058 	 133.544 	 
H 	 -69.5286 	 56.2256 	 127.871 	 
