34

S 	 48.5625 	 7.35136 	 92.2333 	 
C 	 49.7663 	 8.62728 	 92.2094 	 
C 	 50.6332 	 8.39829 	 91.1973 	 
C 	 50.254 	 7.30731 	 90.3418 	 
C 	 49.1643 	 6.59079 	 90.8131 	 
H 	 50.688 	 6.99995 	 89.3575 	 
C 	 51.7415 	 9.30321 	 90.8571 	 
H 	 51.3413 	 10.2877 	 90.7886 	 
H 	 52.0557 	 9.16666 	 89.8323 	 
C 	 52.9247 	 9.48221 	 91.7495 	 
H 	 53.3419 	 10.5116 	 91.4673 	 
H 	 52.6622 	 9.40828 	 92.834 	 
C 	 54.0619 	 8.47169 	 91.5998 	 
H 	 53.7648 	 7.39495 	 91.754 	 
H 	 54.3454 	 8.34953 	 90.5947 	 
H 	 54.8628 	 8.65079 	 92.2935 	 
S 	 49.4224 	 3.903 	 90.4317 	 
C 	 48.0177 	 3.05544 	 89.7925 	 
C 	 46.9407 	 3.85922 	 89.6542 	 
C 	 47.273 	 5.23237 	 89.8182 	 
C 	 48.5681 	 5.41308 	 90.2106 	 
H 	 45.9462 	 3.47137 	 89.2668 	 
C 	 46.1822 	 6.32787 	 89.6569 	 
H 	 46.6113 	 7.29613 	 89.8782 	 
H 	 45.2922 	 6.1092 	 90.2908 	 
C 	 45.7235 	 6.63629 	 88.2259 	 
H 	 45.4099 	 5.65646 	 87.8551 	 
H 	 46.6599 	 7.03418 	 87.71 	 
C 	 44.4418 	 7.50793 	 88.0248 	 
H 	 43.6073 	 7.10784 	 88.4716 	 
H 	 44.3027 	 7.60657 	 86.981 	 
H 	 44.6836 	 8.46013 	 88.5166 	 
H 	 49.7921 	 9.43117 	 92.9075 	 
H 	 48.0722 	 2.03815 	 89.5403 	 
