34

S 	 -91.2956 	 57.8945 	 129.774 	 
C 	 -90.9829 	 56.7937 	 131.145 	 
C 	 -91.0425 	 55.4836 	 130.777 	 
C 	 -91.1128 	 55.3383 	 129.35 	 
C 	 -91.4632 	 56.5093 	 128.62 	 
H 	 -90.9288 	 54.4132 	 128.782 	 
C 	 -91.228 	 54.3636 	 131.774 	 
H 	 -90.9362 	 54.7914 	 132.743 	 
H 	 -90.5434 	 53.4768 	 131.73 	 
C 	 -92.6106 	 53.7846 	 131.909 	 
H 	 -92.7537 	 53.9132 	 132.908 	 
H 	 -93.3914 	 54.3746 	 131.444 	 
C 	 -92.806 	 52.3106 	 131.746 	 
H 	 -92.1942 	 51.7784 	 132.448 	 
H 	 -93.7332 	 51.9441 	 131.998 	 
H 	 -92.4478 	 51.9949 	 130.781 	 
S 	 -90.718 	 57.8564 	 126.351 	 
C 	 -91.3462 	 57.3434 	 124.842 	 
C 	 -92.052 	 56.1873 	 124.929 	 
C 	 -92.2134 	 55.789 	 126.263 	 
C 	 -91.5869 	 56.6415 	 127.175 	 
H 	 -92.4842 	 55.6236 	 124.123 	 
C 	 -93.0177 	 54.5985 	 126.568 	 
H 	 -93.9664 	 54.6868 	 126.079 	 
H 	 -93.2746 	 54.6064 	 127.658 	 
C 	 -92.2912 	 53.3031 	 126.28 	 
H 	 -91.4468 	 53.2184 	 126.978 	 
H 	 -91.6767 	 53.322 	 125.355 	 
C 	 -93.1994 	 52.0325 	 126.357 	 
H 	 -92.5651 	 51.1615 	 126.556 	 
H 	 -93.7662 	 51.9279 	 125.477 	 
H 	 -93.8301 	 52.0363 	 127.17 	 
H 	 -91.1893 	 57.1347 	 132.134 	 
H 	 -91.2357 	 57.8987 	 123.967 	 
