34

S 	 71.852 	 23.303 	 77.1559 	 
C 	 71.0649 	 22.4928 	 78.5303 	 
C 	 69.9587 	 21.7648 	 78.1437 	 
C 	 69.6266 	 22.0352 	 76.8132 	 
C 	 70.5353 	 22.8615 	 76.1523 	 
H 	 68.8342 	 21.5724 	 76.2537 	 
C 	 69.14 	 20.7638 	 79.0088 	 
H 	 68.1063 	 20.6793 	 78.7012 	 
H 	 69.2256 	 21.2627 	 79.9651 	 
C 	 69.7523 	 19.3886 	 79.1931 	 
H 	 70.0307 	 18.9384 	 78.2105 	 
H 	 70.7863 	 19.4832 	 79.6747 	 
C 	 68.9843 	 18.3667 	 79.9322 	 
H 	 68.0105 	 18.145 	 79.5417 	 
H 	 69.6164 	 17.487 	 80.0161 	 
H 	 68.8677 	 18.7503 	 80.9605 	 
S 	 69.2793 	 24.4791 	 74.3243 	 
C 	 69.2862 	 23.9565 	 72.7028 	 
C 	 70.3838 	 23.1714 	 72.412 	 
C 	 71.0455 	 22.6918 	 73.597 	 
C 	 70.4568 	 23.2034 	 74.7305 	 
H 	 70.6467 	 22.6551 	 71.4532 	 
C 	 72.2793 	 21.7407 	 73.3943 	 
H 	 72.4974 	 21.4156 	 74.4405 	 
H 	 73.1207 	 22.3398 	 73.028 	 
C 	 72.1879 	 20.4431 	 72.5304 	 
H 	 72.1186 	 20.6738 	 71.4372 	 
H 	 71.2419 	 20.009 	 72.7431 	 
C 	 73.2294 	 19.3403 	 72.8038 	 
H 	 73.2306 	 18.7164 	 71.8503 	 
H 	 72.9905 	 18.7194 	 73.6842 	 
H 	 74.2146 	 19.6852 	 72.9507 	 
H 	 71.491 	 22.4767 	 79.5521 	 
H 	 68.6496 	 24.4024 	 71.9739 	 
