34

S 	 5.6327 	 19.0045 	 52.4407 	 
C 	 5.5804 	 18.0078 	 53.8343 	 
C 	 4.57487 	 17.0925 	 53.6491 	 
C 	 3.88396 	 17.1856 	 52.4517 	 
C 	 4.408 	 18.0727 	 51.5996 	 
H 	 3.0158 	 16.6376 	 52.1177 	 
C 	 4.0653 	 16.1226 	 54.6713 	 
H 	 2.97713 	 16.3617 	 54.8592 	 
H 	 4.70979 	 16.4003 	 55.5511 	 
C 	 4.19801 	 14.6519 	 54.1838 	 
H 	 3.58744 	 14.5213 	 53.2191 	 
H 	 5.19898 	 14.422 	 53.8827 	 
C 	 3.77822 	 13.73 	 55.3262 	 
H 	 3.79977 	 12.676 	 55.0082 	 
H 	 4.51657 	 13.8798 	 56.1014 	 
H 	 2.76942 	 13.8164 	 55.7342 	 
S 	 5.12916 	 17.8464 	 49.0034 	 
C 	 4.05882 	 18.411 	 47.8137 	 
C 	 2.80545 	 18.7399 	 48.2535 	 
C 	 2.71302 	 18.6145 	 49.6939 	 
C 	 3.99662 	 18.3641 	 50.2213 	 
H 	 1.98556 	 18.9814 	 47.5882 	 
C 	 1.45769 	 18.7244 	 50.4497 	 
H 	 1.491 	 18.0312 	 51.3626 	 
H 	 0.702302 	 18.4367 	 49.7306 	 
C 	 0.973116 	 20.1564 	 50.891 	 
H 	 -1.88458e-05 	 20.1277 	 51.3633 	 
H 	 0.688636 	 20.7307 	 49.9696 	 
C 	 2.08081 	 20.9908 	 51.6611 	 
H 	 2.90122 	 21.4665 	 51.1644 	 
H 	 2.50684 	 20.3578 	 52.4634 	 
H 	 1.52106 	 21.7977 	 52.0871 	 
H 	 6.24984 	 18.1237 	 54.7221 	 
H 	 4.32939 	 18.1757 	 46.8052 	 
