34

S 	 -102.123 	 44.2772 	 123.118 	 
C 	 -103.716 	 44.0954 	 123.76 	 
C 	 -104.647 	 44.5825 	 122.847 	 
C 	 -104.04 	 45.0377 	 121.671 	 
C 	 -102.654 	 44.8947 	 121.622 	 
H 	 -104.514 	 45.5425 	 120.773 	 
C 	 -106.167 	 44.6948 	 123.074 	 
H 	 -106.717 	 43.7559 	 122.751 	 
H 	 -106.496 	 45.5854 	 122.461 	 
C 	 -106.665 	 44.8428 	 124.559 	 
H 	 -106.551 	 43.906 	 125.184 	 
H 	 -106.127 	 45.6755 	 124.988 	 
C 	 -108.196 	 45.2045 	 124.635 	 
H 	 -108.343 	 45.3632 	 125.679 	 
H 	 -108.571 	 46.0693 	 124.178 	 
H 	 -108.82 	 44.2876 	 124.391 	 
S 	 -101.201 	 47.1916 	 120.934 	 
C 	 -100.409 	 47.2255 	 119.456 	 
C 	 -100.691 	 46.0874 	 118.664 	 
C 	 -101.478 	 45.1235 	 119.37 	 
C 	 -101.757 	 45.5162 	 120.673 	 
H 	 -100.388 	 45.9121 	 117.602 	 
C 	 -101.922 	 43.8107 	 118.772 	 
H 	 -102.537 	 43.3627 	 119.579 	 
H 	 -101.106 	 43.0769 	 118.644 	 
C 	 -102.801 	 43.7035 	 117.497 	 
H 	 -103.229 	 42.688 	 117.434 	 
H 	 -102.05 	 43.925 	 116.733 	 
C 	 -104.02 	 44.7309 	 117.476 	 
H 	 -103.639 	 45.7648 	 117.465 	 
H 	 -104.695 	 44.6057 	 118.26 	 
H 	 -104.582 	 44.6072 	 116.575 	 
H 	 -103.902 	 43.7415 	 124.798 	 
H 	 -100.141 	 48.1422 	 118.902 	 
