34

S 	 -17.8356 	 54.3238 	 60.3026 	 
C 	 -18.1756 	 52.7342 	 59.5395 	 
C 	 -17.4966 	 51.6997 	 60.2118 	 
C 	 -16.5785 	 52.1704 	 61.1972 	 
C 	 -16.6436 	 53.5604 	 61.3682 	 
H 	 -15.8598 	 51.499 	 61.6955 	 
C 	 -17.454 	 50.2588 	 59.6907 	 
H 	 -18.4035 	 50.0479 	 59.1784 	 
H 	 -17.2981 	 49.74 	 60.6011 	 
C 	 -16.3106 	 50.0017 	 58.732 	 
H 	 -16.561 	 50.5729 	 57.8224 	 
H 	 -15.337 	 50.4606 	 59.0468 	 
C 	 -16.2408 	 48.5125 	 58.3537 	 
H 	 -17.2567 	 48.0028 	 58.3175 	 
H 	 -15.6777 	 48.513 	 57.4376 	 
H 	 -15.6059 	 47.9815 	 59.0739 	 
S 	 -14.7432 	 55.5531 	 61.3556 	 
C 	 -13.8868 	 55.9043 	 62.828 	 
C 	 -14.4137 	 55.2519 	 63.8974 	 
C 	 -15.4236 	 54.265 	 63.5788 	 
C 	 -15.7112 	 54.3259 	 62.1771 	 
H 	 -14.1214 	 55.5141 	 64.9377 	 
C 	 -16.1172 	 53.425 	 64.6817 	 
H 	 -17.1632 	 53.3331 	 64.4847 	 
H 	 -16.1213 	 53.8674 	 65.6867 	 
C 	 -15.6497 	 51.9068 	 64.7898 	 
H 	 -15.4493 	 51.5666 	 63.7639 	 
H 	 -16.5548 	 51.3948 	 65.0175 	 
C 	 -14.4101 	 51.642 	 65.6758 	 
H 	 -14.5826 	 51.9455 	 66.7262 	 
H 	 -13.6369 	 52.1666 	 65.1951 	 
H 	 -14.2599 	 50.5692 	 65.6231 	 
H 	 -18.7144 	 52.5652 	 58.6763 	 
H 	 -12.9933 	 56.586 	 62.8699 	 
