34

S 	 -42.3704 	 53.0637 	 101.184 	 
C 	 -41.9537 	 51.5313 	 100.462 	 
C 	 -41.4922 	 50.6128 	 101.351 	 
C 	 -41.2512 	 51.228 	 102.637 	 
C 	 -41.5806 	 52.588 	 102.669 	 
H 	 -40.9217 	 50.662 	 103.459 	 
C 	 -41.5078 	 49.0536 	 101.255 	 
H 	 -40.4712 	 48.8243 	 100.976 	 
H 	 -42.1145 	 48.784 	 100.381 	 
C 	 -41.9326 	 48.2816 	 102.47 	 
H 	 -41.8333 	 47.2233 	 102.227 	 
H 	 -41.1931 	 48.4043 	 103.307 	 
C 	 -43.3358 	 48.561 	 102.926 	 
H 	 -43.5074 	 49.639 	 103.188 	 
H 	 -43.9784 	 48.3763 	 102.109 	 
H 	 -43.5462 	 47.9477 	 103.811 	 
S 	 -41.1482 	 55.2129 	 103.484 	 
C 	 -41.255 	 55.6101 	 105.145 	 
C 	 -41.368 	 54.4919 	 105.902 	 
C 	 -41.475 	 53.3017 	 105.118 	 
C 	 -41.4565 	 53.5046 	 103.776 	 
H 	 -41.4692 	 54.5987 	 106.959 	 
C 	 -41.4905 	 51.9709 	 105.87 	 
H 	 -40.4522 	 51.9399 	 106.143 	 
H 	 -41.5915 	 51.1833 	 105.173 	 
C 	 -42.2065 	 51.9407 	 107.194 	 
H 	 -41.5681 	 52.4983 	 107.905 	 
H 	 -42.047 	 50.9273 	 107.71 	 
C 	 -43.6815 	 52.3715 	 107.367 	 
H 	 -43.8488 	 53.4321 	 107.066 	 
H 	 -44.0489 	 52.252 	 108.383 	 
H 	 -44.2367 	 51.7537 	 106.684 	 
H 	 -42.2927 	 51.2937 	 99.4282 	 
H 	 -41.2542 	 56.6119 	 105.523 	 
