34

S 	 -100.376 	 53.7736 	 121.995 	 
C 	 -100.048 	 52.5842 	 120.777 	 
C 	 -100.765 	 52.645 	 119.633 	 
C 	 -101.666 	 53.7611 	 119.714 	 
C 	 -101.668 	 54.4078 	 120.964 	 
H 	 -102.361 	 54.1142 	 118.893 	 
C 	 -100.535 	 51.748 	 118.422 	 
H 	 -99.4795 	 51.7797 	 118.196 	 
H 	 -101.23 	 52.0957 	 117.711 	 
C 	 -100.766 	 50.2437 	 118.679 	 
H 	 -100.118 	 49.9844 	 119.483 	 
H 	 -101.731 	 50.1317 	 119.081 	 
C 	 -100.55 	 49.4076 	 117.446 	 
H 	 -100.398 	 48.3316 	 117.666 	 
H 	 -101.357 	 49.4595 	 116.606 	 
H 	 -99.6076 	 49.6988 	 116.946 	 
S 	 -101.5 	 56.9646 	 121.812 	 
C 	 -102.917 	 57.8597 	 122.036 	 
C 	 -104.06 	 57.1613 	 121.901 	 
C 	 -103.835 	 55.7918 	 121.456 	 
C 	 -102.482 	 55.5115 	 121.376 	 
H 	 -105.017 	 57.5558 	 122.063 	 
C 	 -104.942 	 54.9455 	 120.894 	 
H 	 -104.793 	 54.9472 	 119.804 	 
H 	 -105.921 	 55.3488 	 120.958 	 
C 	 -105.016 	 53.5371 	 121.433 	 
H 	 -104.043 	 53.0427 	 121.331 	 
H 	 -105.725 	 53.0863 	 120.764 	 
C 	 -105.523 	 53.4169 	 122.876 	 
H 	 -105.158 	 52.4678 	 123.328 	 
H 	 -106.556 	 53.7132 	 123.118 	 
H 	 -104.939 	 54.2027 	 123.482 	 
H 	 -99.3328 	 51.7614 	 120.856 	 
H 	 -102.984 	 58.9319 	 122.356 	 
