34

S 	 45.5042 	 16.4485 	 49.7976 	 
C 	 45.1103 	 15.8012 	 48.1749 	 
C 	 44.8087 	 16.8376 	 47.3564 	 
C 	 45.2133 	 18.1383 	 47.8729 	 
C 	 45.5825 	 18.0986 	 49.2385 	 
H 	 45.1947 	 19.0819 	 47.2631 	 
C 	 44.373 	 16.6941 	 45.9363 	 
H 	 44.2224 	 15.6233 	 45.6725 	 
H 	 45.0502 	 17.028 	 45.2038 	 
C 	 43.0055 	 17.3677 	 45.6707 	 
H 	 43.042 	 18.4032 	 45.853 	 
H 	 42.6349 	 17.2996 	 44.6087 	 
C 	 41.7814 	 16.8323 	 46.5628 	 
H 	 41.9712 	 17.0865 	 47.5672 	 
H 	 40.8504 	 17.298 	 46.2263 	 
H 	 41.7016 	 15.7124 	 46.4922 	 
S 	 47.1307 	 20.3 	 49.5353 	 
C 	 47.0426 	 21.2703 	 51.0273 	 
C 	 46.1704 	 20.678 	 51.8938 	 
C 	 45.4833 	 19.5326 	 51.3894 	 
C 	 45.9041 	 19.2115 	 50.0733 	 
H 	 45.9456 	 21.1021 	 52.8858 	 
C 	 44.5786 	 18.6551 	 52.2461 	 
H 	 45.1957 	 18.3783 	 53.1641 	 
H 	 44.3342 	 17.6786 	 51.8119 	 
C 	 43.321 	 19.4018 	 52.6765 	 
H 	 43.6613 	 20.2359 	 53.2311 	 
H 	 42.8625 	 18.7489 	 53.4559 	 
C 	 42.3728 	 19.838 	 51.5139 	 
H 	 41.9659 	 18.9839 	 50.9778 	 
H 	 42.7521 	 20.5455 	 50.7571 	 
H 	 41.613 	 20.426 	 51.9548 	 
H 	 45.0039 	 14.7794 	 47.8952 	 
H 	 47.5416 	 22.176 	 51.246 	 
