34

S 	 -57.5253 	 -2.46646 	 -26.7572 	 
C 	 -56.7083 	 -2.73636 	 -25.2533 	 
C 	 -56.2471 	 -4.03777 	 -25.123 	 
C 	 -56.3447 	 -4.69947 	 -26.367 	 
C 	 -57.0248 	 -4.03322 	 -27.3292 	 
H 	 -56.0069 	 -5.70483 	 -26.5804 	 
C 	 -55.5148 	 -4.6669 	 -23.921 	 
H 	 -56.1759 	 -5.40597 	 -23.421 	 
H 	 -55.431 	 -3.86213 	 -23.2002 	 
C 	 -54.1247 	 -5.32757 	 -24.3809 	 
H 	 -54.3307 	 -6.22656 	 -24.9692 	 
H 	 -53.5344 	 -4.76866 	 -25.037 	 
C 	 -53.2287 	 -5.75799 	 -23.2136 	 
H 	 -53.8781 	 -6.44419 	 -22.6486 	 
H 	 -52.2104 	 -6.04852 	 -23.4045 	 
H 	 -53.244 	 -4.86307 	 -22.5357 	 
S 	 -56.1411 	 -5.27355 	 -29.6048 	 
C 	 -57.1824 	 -5.90206 	 -30.763 	 
C 	 -58.4646 	 -5.44155 	 -30.4611 	 
C 	 -58.6072 	 -4.61885 	 -29.3266 	 
C 	 -57.3767 	 -4.53024 	 -28.6576 	 
H 	 -59.3673 	 -5.76594 	 -30.9864 	 
C 	 -59.9374 	 -4.34081 	 -28.756 	 
H 	 -59.9751 	 -4.4129 	 -27.6899 	 
H 	 -60.4985 	 -5.23305 	 -29.0541 	 
C 	 -60.7169 	 -3.1132 	 -29.3129 	 
H 	 -61.801 	 -3.21866 	 -29.0547 	 
H 	 -60.6544 	 -3.07243 	 -30.4399 	 
C 	 -60.1545 	 -1.67307 	 -28.775 	 
H 	 -60.5815 	 -1.53398 	 -27.7209 	 
H 	 -60.6303 	 -0.79837 	 -29.213 	 
H 	 -59.0541 	 -1.53701 	 -28.8657 	 
H 	 -56.876 	 -2.13426 	 -24.3595 	 
H 	 -56.9176 	 -6.63443 	 -31.5116 	 
